@<TRIPOS>MOLECULE
30
   51    54     1     0     0
SMALL
No Charge or Current Charge


@<TRIPOS>ATOM
      1 C1           1.4220    29.0340     6.7680 ca         1 30        0.928000
      2 C2          -1.4500    32.1630     8.0080 cc         1 30        0.394700
      3 C3          -0.5820    26.6250     8.9780 c3         1 30        0.136400
      4 C4          -1.2500    25.7670    10.0810 c6         1 30       -0.071700
      5 C5          -1.3550    24.3310     9.5270 c6         1 30       -0.074400
      6 C6          -1.6530    23.2730    10.6030 c6         1 30       -0.075900
      7 C7          -0.7810    23.3430    11.8650 c6         1 30       -0.078400
      8 C8          -0.7120    24.7790    12.4320 c6         1 30       -0.075900
      9 C9          -0.3880    25.8600    11.3800 c6         1 30       -0.074400
     10 C10          4.6820    25.7980     5.5180 ca         1 30        0.004000
     11 C11          4.7080    25.1960     6.7780 ca         1 30       -0.421500
     12 C12          4.0610    25.7970     7.8590 ca         1 30        0.004000
     13 C13          3.3500    26.9770     7.6600 ca         1 30       -0.184500
     14 N1           0.4880    28.1800     7.4980 nb         1 30       -0.826900
     15 C14         -0.5680    28.6370     8.0860 ca         1 30        0.759700
     16 O1          -1.3890    27.8080     8.7520 os         1 30       -0.415100
     17 C15         -0.8370    30.0590     7.9870 ca         1 30       -0.208200
     18 N2          -1.8060    31.0220     8.4250 nd         1 30       -0.499000
     19 N3          -0.3370    32.0960     7.3180 na         1 30       -0.382000
     20 C16          0.0120    30.8440     7.3110 ca         1 30        0.472900
     21 N4           1.1720    30.2780     6.7090 nb         1 30       -0.768900
     22 N5           2.5230    28.7210     6.1570 nu         1 30       -0.732200
     23 C17          3.2800    27.5650     6.3910 ca         1 30        0.231600
     24 C18          3.9800    26.9870     5.3370 ca         1 30       -0.184500
     25 H1          -1.9730    33.0850     8.1590 h5         1 30        0.076800
     26 H2          -0.5410    26.0540     8.0430 h1         1 30        0.054700
     27 H3           0.4540    26.7760     9.3110 h1         1 30        0.054700
     28 H4          -2.2580    26.1250    10.2960 hc         1 30        0.071700
     29 H5          -0.4090    24.0420     9.0630 hc         1 30        0.044700
     30 H6          -2.1060    24.2820     8.7360 hc         1 30        0.044700
     31 H7          -1.6090    22.2710    10.1760 hc         1 30        0.041700
     32 H8          -2.6840    23.4220    10.9160 hc         1 30        0.041700
     33 H9           0.2300    23.0140    11.6180 hc         1 30        0.040200
     34 H10         -1.1520    22.6520    12.6230 hc         1 30        0.040200
     35 H11         -0.0270    24.8110    13.2730 hc         1 30        0.041700
     36 H12         -1.6870    25.0180    12.8620 hc         1 30        0.041700
     37 H13         -0.4740    26.8530    11.8240 hc         1 30        0.044700
     38 H14          0.6710    25.7290    11.1480 hc         1 30        0.044700
     39 H15          5.2010    25.3560     4.6790 ha         1 30        0.156000
     40 H16          4.0950    25.3470     8.8440 ha         1 30        0.156000
     41 H17          2.8330    27.4250     8.4940 ha         1 30        0.152500
     42 H18          0.0880    32.8960     6.8450 hn         1 30        0.319700
     43 H19          2.9620    29.4640     5.6310 hn         1 30        0.457800
     44 H20          3.9710    27.4490     4.3650 ha         1 30        0.152500
     45 S1           5.5650    23.6490     7.0220 sy         1 30        1.403400
     46 O2           6.4900    23.8350     8.1420 o          1 30       -0.660700
     47 O3           6.0740    23.1940     5.7240 o          1 30       -0.660700
     48 H21          4.6720    21.4940     7.6670 h1         1 30        0.112000
     49 H22          3.8380    22.8260     8.5090 h1         1 30        0.112000
     50 C19          4.2270    22.4780     7.5560 c3         1 30       -0.354300
     51 H23          3.4520    22.4700     6.7950 h1         1 30        0.112000
@<TRIPOS>BOND
     1     1    14 ar  
     2     1    21 ar  
     3     1    22 1   
     4     2    18 2   
     5     2    19 1   
     6     2    25 1   
     7     3     4 1   
     8     3    16 1   
     9     3    26 1   
    10     3    27 1   
    11     4     5 1   
    12     4     9 1   
    13     4    28 1   
    14     5     6 1   
    15     5    29 1   
    16     5    30 1   
    17     6     7 1   
    18     6    31 1   
    19     6    32 1   
    20     7     8 1   
    21     7    33 1   
    22     7    34 1   
    23     8     9 1   
    24     8    35 1   
    25     8    36 1   
    26     9    37 1   
    27     9    38 1   
    28    10    11 ar  
    29    10    24 ar  
    30    10    39 1   
    31    11    12 ar  
    32    11    45 1   
    33    12    13 ar  
    34    12    40 1   
    35    13    23 ar  
    36    13    41 1   
    37    14    15 ar  
    38    15    16 1   
    39    15    17 ar  
    40    17    18 1   
    41    17    20 ar  
    42    19    20 1   
    43    19    42 1   
    44    20    21 ar  
    45    22    23 1   
    46    22    43 1   
    47    23    24 ar  
    48    24    44 1   
    49    45    46 2   
    50    45    47 2   
    51    45    50 1   
    52    48    50 1   
    53    49    50 1   
    54    50    51 1   
@<TRIPOS>SUBSTRUCTURE
     1 30          1 TEMP              0 ****  ****    0 ROOT
