@<TRIPOS>MOLECULE
LIG
51 54 1 0 0
SMALL
resp
@<TRIPOS>ATOM
   1   C1        0.4560   -2.5120    0.0270   ca 1 30  0.4131
   2   C2        4.5440   -3.9130   -0.1140   cc 1 30  0.1903
   3   C3        2.1430    1.1360   -0.2910   c3 1 30  0.0495
   4   C4        3.1030    2.3100   -0.3990   c6 1 30  0.0411
   5   C5        2.3140    3.6170   -0.5680   c6 1 30 -0.0378
   6   C6        3.2420    4.8310   -0.6670   c6 1 30 -0.0271
   7   C7        4.1900    4.9130    0.5320   c6 1 30  0.0126
   8   C8        4.9780    3.6130    0.7050   c6 1 30 -0.0271
   9   C9        4.0490    2.4000    0.8060   c6 1 30 -0.0378
  10  C10       -4.3270   -1.3590    0.2650   ca 1 30 -0.1190
  11  C11       -4.1480    0.0130    0.1440   ca 1 30 -0.0362
  12  C12       -2.8690    0.5320    0.0260   ca 1 30 -0.1190
  13  C13       -1.7650   -0.2990    0.0100   ca 1 30 -0.1893
  14   N1        1.0160   -1.3090   -0.0860   nb 1 30 -0.3896
  15  C14        2.3290   -1.2250   -0.1670   ca 1 30  0.3837
  16   O1        2.9140   -0.0600   -0.2770   os 1 30 -0.2926
  17  C15        3.1030   -2.3840   -0.1360   ca 1 30  0.1379
  18   N2        4.4620   -2.6420   -0.1950   nd 1 30 -0.5554
  19   N3        3.3220   -4.5400   -0.0030   na 1 30 -0.4659
  20  C16        2.3860   -3.5590   -0.0160   ca 1 30  0.4999
  21   N4        1.0710   -3.6790    0.0690   nb 1 30 -0.6727
  22   N5       -0.9090   -2.6140    0.1130   nu 1 30 -0.2090
  23  C17       -1.9360   -1.6800    0.1180   ca 1 30  0.0929
  24  C18       -3.2330   -2.1920    0.2490   ca 1 30 -0.1893
  25   H1        5.4550   -4.4760   -0.1280   h5 1 30  0.1611
  26   H2        1.4660    1.1060   -1.1350   h1 1 30  0.0471
  27   H3        1.5560    1.1890    0.6170   h1 1 30  0.0471
  28   H4        3.7030    2.1550   -1.2940   hc 1 30  0.0394
  29   H5        1.6450    3.7470    0.2830   hc 1 30  0.0219
  30   H6        1.6840    3.5620   -1.4530   hc 1 30  0.0219
  31   H7        2.6530    5.7400   -0.7440   hc 1 30  0.0086
  32   H8        3.8260    4.7610   -1.5830   hc 1 30  0.0086
  33   H9        3.6120    5.1070    1.4340   hc 1 30  0.0042
  34  H10        4.8710    5.7520    0.4120   hc 1 30  0.0042
  35  H11        5.6060    3.6690    1.5900   hc 1 30  0.0086
  36  H12        5.6480    3.4810   -0.1430   hc 1 30  0.0086
  37  H13        4.6300    1.4880    0.8860   hc 1 30  0.0219
  38  H14        3.4550    2.4780    1.7170   hc 1 30  0.0219
  39  H15       -5.3130   -1.7640    0.3880   ha 1 30  0.1651
  40  H16       -2.7310    1.5950   -0.0350   ha 1 30  0.1651
  41  H17       -0.7850    0.1120   -0.0760   ha 1 30  0.1361
  42  H18        3.1490   -5.5160    0.0750   hn 1 30  0.3703
  43  H19       -1.1960   -3.5630    0.2010   hn 1 30  0.2694
  44  H20       -3.3760   -3.2540    0.3490   ha 1 30  0.1361
  45   S1       -5.5440    1.0890    0.1450   sy 1 30  0.9804
  46   O2       -5.1110    2.3900    0.5760    o 1 30 -0.5682
  47   O3       -6.6240    0.4220    0.8200    o 1 30 -0.5682
  48  H21       -6.8680    1.8910   -1.5970   h1 1 30  0.1532
  49  H22       -5.1910    1.6640   -2.1240   h1 1 30  0.1532
  50  C19       -6.0080    1.2340   -1.5640   c3 1 30 -0.4241
  51  H23       -6.2710    0.2600   -1.9500   h1 1 30  0.1532
@<TRIPOS>BOND
    1     1    14 ar
    2     1    21 ar
    3     1    22  1
    4     2    18  2
    5     2    19  1
    6     2    25  1
    7     3     4  1
    8     3    16  1
    9     3    26  1
   10     3    27  1
   11     4     5  1
   12     4     9  1
   13     4    28  1
   14     5     6  1
   15     5    29  1
   16     5    30  1
   17     6     7  1
   18     6    31  1
   19     6    32  1
   20     7     8  1
   21     7    33  1
   22     7    34  1
   23     8     9  1
   24     8    35  1
   25     8    36  1
   26     9    37  1
   27     9    38  1
   28    10    11 ar
   29    10    24 ar
   30    10    39  1
   31    11    12 ar
   32    11    45  1
   33    12    13 ar
   34    12    40  1
   35    13    23 ar
   36    13    41  1
   37    14    15 ar
   38    15    16  1
   39    15    17 ar
   40    17    18  1
   41    17    20 ar
   42    19    20  1
   43    19    42  1
   44    20    21 ar
   45    22    23  1
   46    22    43  1
   47    23    24 ar
   48    24    44  1
   49    45    46  2
   50    45    47  2
   51    45    50  1
   52    48    50  1
   53    49    50  1
   54    50    51  1
@<TRIPOS>SUBSTRUCTURE
     1 LIG         1 TEMP              0 ****  ****    0 ROOT
