@<TRIPOS>MOLECULE
LIG
49 52 1 0 0
SMALL
resp
@<TRIPOS>ATOM
   1   C1        1.9150   -1.5980   -0.0140   ca 1 21  0.3703
   2   C2       -0.5540   -5.1420    0.2770   cc 1 21  0.1706
   3   C3       -1.6130    0.3460    0.2840   c3 1 21  0.0196
   4   C4       -3.0880    0.7140    0.2830   c6 1 21  0.0069
   5   C5       -3.2530    2.2350    0.4120   c6 1 21 -0.0256
   6   C6       -4.7270    2.6510    0.3980   c6 1 21 -0.0238
   7   C7       -5.4470    2.1250   -0.8460   c6 1 21  0.0065
   8   C8       -5.2860    0.6090   -0.9800   c6 1 21 -0.0238
   9   C9       -3.8120    0.1950   -0.9670   c6 1 21 -0.0256
  10  C10        2.8690    2.8130    0.1520   ca 1 21  0.1892
  11  C11        4.0350    3.1770   -0.5140   ca 1 21 -0.2312
  12  C12        4.8310    2.1910   -1.0540   ca 1 21 -0.1158
  13  C13        4.4830    0.8540   -0.9470   ca 1 21 -0.2698
  14   N1        0.7490   -0.9560    0.1050   nb 1 21 -0.2132
  15  C14       -0.3540   -1.6630    0.2170   ca 1 21  0.1911
  16   O1       -1.5200   -1.0710    0.3170   os 1 21 -0.2476
  17  C15       -0.2960   -3.0570    0.2290   ca 1 21  0.2275
  18   N2       -1.2390   -4.0670    0.3330   nd 1 21 -0.5641
  19   N3        0.8000   -4.9280    0.1390   na 1 21 -0.4380
  20  C16        0.9750   -3.5830    0.1070   ca 1 21  0.4363
  21   N4        2.1040   -2.9070   -0.0180   nb 1 21 -0.6506
  22   N5        3.0640   -0.8780   -0.1570   nu 1 21 -0.1902
  23  C17        3.3170    0.4960   -0.2830   ca 1 21 -0.0107
  24  C18        2.5040    1.4810    0.2760   ca 1 21  0.0705
  25   H1       -0.9550   -6.1340    0.3270   h5 1 21  0.1628
  26   H2       -1.1120    0.7470    1.1570   h1 1 21  0.0971
  27   H3       -1.1080    0.7190   -0.5970   h1 1 21  0.0971
  28   H4       -3.5390    0.2470    1.1560   hc 1 21  0.0389
  29   H5       -2.7360    2.7250   -0.4130   hc 1 21  0.0142
  30   H6       -2.7820    2.5860    1.3280   hc 1 21  0.0142
  31   H7       -4.8050    3.7330    0.4490   hc 1 21  0.0107
  32   H8       -5.2160    2.2610    1.2880   hc 1 21  0.0107
  33   H9       -5.0370    2.6100   -1.7310   hc 1 21  0.0016
  34  H10       -6.5010    2.3900   -0.8070   hc 1 21  0.0016
  35  H11       -5.7590    0.2610   -1.8940   hc 1 21  0.0107
  36  H12       -5.8040    0.1180   -0.1570   hc 1 21  0.0107
  37  H13       -3.7250   -0.8840   -1.0210   hc 1 21  0.0142
  38  H14       -3.3200    0.5970   -1.8530   hc 1 21  0.0142
  39   O2        2.1530    3.8350    0.6630   os 1 21 -0.3147
  40  H15        4.2890    4.2170   -0.5910   ha 1 21  0.1437
  41  H16        5.7350    2.4610   -1.5700   ha 1 21  0.1538
  42  H17        5.1090    0.0950   -1.3830   ha 1 21  0.1598
  43  H18        1.5160   -5.6150    0.0740   hn 1 21  0.3619
  44  H19        3.8480   -1.4680   -0.3220   hn 1 21  0.2630
  45  H20        1.6140    1.1930    0.7880   ha 1 21 -0.1466
  46  C19        0.9780    3.5830    1.3770   c3 1 21  0.0464
  47  H21        1.1670    2.9700    2.2520   h1 1 21  0.0584
  48  H22        0.6050    4.5450    1.6920   h1 1 21  0.0584
  49  H23        0.2340    3.0990    0.7540   h1 1 21  0.0584
@<TRIPOS>BOND
    1     1    14 ar
    2     1    21 ar
    3     1    22  1
    4     2    18  2
    5     2    19  1
    6     2    25  1
    7     3     4  1
    8     3    16  1
    9     3    26  1
   10     3    27  1
   11     4     5  1
   12     4     9  1
   13     4    28  1
   14     5     6  1
   15     5    29  1
   16     5    30  1
   17     6     7  1
   18     6    31  1
   19     6    32  1
   20     7     8  1
   21     7    33  1
   22     7    34  1
   23     8     9  1
   24     8    35  1
   25     8    36  1
   26     9    37  1
   27     9    38  1
   28    10    11 ar
   29    10    24 ar
   30    10    39  1
   31    11    12 ar
   32    11    40  1
   33    12    13 ar
   34    12    41  1
   35    13    23 ar
   36    13    42  1
   37    14    15 ar
   38    15    16  1
   39    15    17 ar
   40    17    18  1
   41    17    20 ar
   42    19    20  1
   43    19    43  1
   44    20    21 ar
   45    22    23  1
   46    22    44  1
   47    23    24 ar
   48    24    45  1
   49    39    46  1
   50    46    47  1
   51    46    48  1
   52    46    49  1
@<TRIPOS>SUBSTRUCTURE
     1 LIG         1 TEMP              0 ****  ****    0 ROOT
