@<TRIPOS>MOLECULE
21
49 52 1 0 0
SMALL
bcc
@<TRIPOS>ATOM
   1   C1        1.4220   29.0340    6.7680   ca 1 21  0.9190
   2   C2       -1.4500   32.1630    8.0080   cc 1 21  0.3898
   3   C3       -0.5820   26.6250    8.9780   c3 1 21  0.1375
   4   C4       -1.2500   25.7670   10.0810   c6 1 21 -0.0727
   5   C5       -1.3550   24.3310    9.5270   c6 1 21 -0.0738
   6   C6       -1.6530   23.2730   10.6030   c6 1 21 -0.0758
   7   C7       -0.7810   23.3430   11.8650   c6 1 21 -0.0783
   8   C8       -0.7120   24.7790   12.4320   c6 1 21 -0.0758
   9   C9       -0.3880   25.8600   11.3800   c6 1 21 -0.0739
  10  C10        3.8830   25.4730    7.4170   ca 1 21  0.1312
  11  C11        4.7150   25.1300    6.3550   ca 1 21 -0.1649
  12  C12        4.8270   25.9690    5.2530   ca 1 21 -0.0869
  13  C13        4.1090   27.1610    5.2180   ca 1 21 -0.1999
  14   N1        0.4880   28.1800    7.4980   nb 1 21 -0.8219
  15  C14       -0.5680   28.6370    8.0860   ca 1 21  0.7557
  16   O1       -1.3890   27.8080    8.7520   os 1 21 -0.4180
  17  C15       -0.8370   30.0590    7.9870   ca 1 21 -0.2131
  18   N2       -1.8060   31.0220    8.4250   nd 1 21 -0.5010
  19   N3       -0.3370   32.0960    7.3180   na 1 21 -0.3849
  20  C16        0.0120   30.8440    7.3110   ca 1 21  0.4739
  21   N4        1.1720   30.2780    6.7090   nb 1 21 -0.7749
  22   N5        2.5230   28.7210    6.1570   nu 1 21 -0.7092
  23  C17        3.2720   27.5370    6.2660   ca 1 21  0.1667
  24  C18        3.2070   26.7020    7.3870   ca 1 21 -0.1819
  25   H1       -1.9730   33.0850    8.1590   h5 1 21  0.0738
  26   H2       -0.5320   26.0530    8.0440   h1 1 21  0.0542
  27   H3        0.4480   26.7890    9.3210   h1 1 21  0.0542
  28   H4       -2.2580   26.1250   10.2960   hc 1 21  0.0717
  29   H5       -0.4170   24.0350    9.0560   hc 1 21  0.0442
  30   H6       -2.1110   24.2840    8.7400   hc 1 21  0.0442
  31   H7       -1.6100   22.2700   10.1760   hc 1 21  0.0415
  32   H8       -2.6840   23.4230   10.9170   hc 1 21  0.0415
  33   H9        0.2300   23.0140   11.6180   hc 1 21  0.0387
  34  H10       -1.1520   22.6520   12.6230   hc 1 21  0.0387
  35  H11       -0.0270   24.8110   13.2730   hc 1 21  0.0415
  36  H12       -1.6870   25.0180   12.8620   hc 1 21  0.0415
  37  H13       -0.4770   26.8520   11.8250   hc 1 21  0.0442
  38  H14        0.6710   25.7320   11.1530   hc 1 21  0.0442
  39   O2        3.7340   24.5260    8.4030   os 1 21 -0.3278
  40  H15        5.2600   24.2000    6.3700   ha 1 21  0.1511
  41  H16        5.4730   25.7040    4.4280   ha 1 21  0.1361
  42  H17        4.2200   27.7980    4.3630   ha 1 21  0.1341
  43  H18        0.0880   32.8960    6.8440   hn 1 21  0.3178
  44  H19        2.9030   29.4470    5.5670   hn 1 21  0.4409
  45  H20        2.5820   26.9920    8.2140   ha 1 21  0.1581
  46  C19        2.6680   24.6890    9.3380   c3 1 21  0.1128
  47  H21        1.7150   24.8460    8.8390   h1 1 21  0.0454
  48  H22        2.5590   23.7910    9.9460   h1 1 21  0.0454
  49  H23        2.8510   25.5280   10.0080   h1 1 21  0.0454
@<TRIPOS>BOND
    1     1    14 ar
    2     1    21 ar
    3     1    22  1
    4     2    18  2
    5     2    19  1
    6     2    25  1
    7     3     4  1
    8     3    16  1
    9     3    26  1
   10     3    27  1
   11     4     5  1
   12     4     9  1
   13     4    28  1
   14     5     6  1
   15     5    29  1
   16     5    30  1
   17     6     7  1
   18     6    31  1
   19     6    32  1
   20     7     8  1
   21     7    33  1
   22     7    34  1
   23     8     9  1
   24     8    35  1
   25     8    36  1
   26     9    37  1
   27     9    38  1
   28    10    11 ar
   29    10    24 ar
   30    10    39  1
   31    11    12 ar
   32    11    40  1
   33    12    13 ar
   34    12    41  1
   35    13    23 ar
   36    13    42  1
   37    14    15 ar
   38    15    16  1
   39    15    17 ar
   40    17    18  1
   41    17    20 ar
   42    19    20  1
   43    19    43  1
   44    20    21 ar
   45    22    23  1
   46    22    44  1
   47    23    24 ar
   48    24    45  1
   49    39    46  1
   50    46    47  1
   51    46    48  1
   52    46    49  1
@<TRIPOS>SUBSTRUCTURE
     1 21          1 TEMP              0 ****  ****    0 ROOT
