@<TRIPOS>MOLECULE
LIG
   53    56     1     0     0
SMALL
No Charge or Current Charge


@<TRIPOS>ATOM
      1 C1           0.7050    -2.5170     0.0810 ca         1 LIG       0.477600
      2 C2           4.7940    -3.8960    -0.2020 cc         1 LIG       0.191900
      3 C3           2.3620     1.1400    -0.2890 c3         1 LIG       0.031800
      4 C4           3.3110     2.3200    -0.4270 c6         1 LIG       0.060000
      5 C5           2.5100     3.6230    -0.5660 c6         1 LIG      -0.034000
      6 C6           3.4290     4.8420    -0.6930 c6         1 LIG      -0.024500
      7 C7           4.4160     4.9260     0.4730 c6         1 LIG       0.012300
      8 C8           5.2160     3.6290     0.6160 c6         1 LIG      -0.024500
      9 C9           4.2970     2.4110     0.7450 c6         1 LIG      -0.034000
     10 C10         -4.0720    -1.3840     0.4880 ca         1 LIG      -0.113300
     11 C11         -3.9070    -0.0120     0.3620 ca         1 LIG       0.010700
     12 C12         -2.6330     0.5110     0.1990 ca         1 LIG      -0.113300
     13 C13         -1.5270    -0.3150     0.1430 ca         1 LIG      -0.177600
     14 N1           1.2550    -1.3110    -0.0500 nb         1 LIG      -0.443600
     15 C14          2.5640    -1.2200    -0.1760 ca         1 LIG       0.443700
     16 O1           3.1390    -0.0520    -0.3050 os         1 LIG      -0.305000
     17 C15          3.3450    -2.3750    -0.1720 ca         1 LIG       0.133200
     18 N2           4.7020    -2.6260    -0.2790 nd         1 LIG      -0.558400
     19 N3           3.5800    -4.5290    -0.0490 na         1 LIG      -0.437000
     20 C16          2.6390    -3.5530    -0.0290 ca         1 LIG       0.448900
     21 N4           1.3280    -3.6810     0.1010 nb         1 LIG      -0.672500
     22 N5          -0.6550    -2.6260     0.2150 nu         1 LIG      -0.239100
     23 C17         -1.6870    -1.6970     0.2570 ca         1 LIG       0.071900
     24 C18         -2.9750    -2.2140     0.4330 ca         1 LIG      -0.177600
     25 H1           5.7060    -4.4550    -0.2470 h5         1 LIG       0.159000
     26 H2           1.6560     1.1080    -1.1100 h1         1 LIG       0.048200
     27 H3           1.8060     1.1880     0.6380 h1         1 LIG       0.048200
     28 H4           3.8820     2.1700    -1.3420 hc         1 LIG       0.034400
     29 H5           1.8700     3.7470     0.3070 hc         1 LIG       0.019600
     30 H6           1.8510     3.5660    -1.4290 hc         1 LIG       0.019600
     31 H7           2.8320     5.7480    -0.7480 hc         1 LIG       0.007100
     32 H8           3.9810     4.7770    -1.6290 hc         1 LIG       0.007100
     33 H9           3.8680     5.1150     1.3950 hc         1 LIG       0.003900
     34 H10          5.0880     5.7690     0.3330 hc         1 LIG       0.003900
     35 H11          5.8730     3.6870     1.4790 hc         1 LIG       0.007100
     36 H12          5.8580     3.5030    -0.2540 hc         1 LIG       0.007100
     37 H13          4.8850     1.5020     0.8040 hc         1 LIG       0.019600
     38 H14          3.7340     2.4840     1.6760 hc         1 LIG       0.019600
     39 H15         -5.0510    -1.7950     0.6480 ha         1 LIG       0.151300
     40 H16         -2.4990     1.5740     0.1370 ha         1 LIG       0.151300
     41 H17         -0.5530     0.1020     0.0230 ha         1 LIG       0.138100
     42 H18          3.4150    -5.5060     0.0340 hn         1 LIG       0.364400
     43 H19         -0.9340    -3.5770     0.3120 hn         1 LIG       0.274100
     44 H20         -3.1110    -3.2760     0.5390 ha         1 LIG       0.138100
     45 S1          -5.3070     1.0630     0.4020 sy         1 LIG       0.881100
     46 O2          -4.8610     2.3360     0.8770 o          1 LIG      -0.510300
     47 O3          -6.3700     0.3460     1.0350 o          1 LIG      -0.510300
     48 H21         -5.1740     1.9760    -1.6060 hn         1 LIG       0.354200
     49 N6          -5.7760     1.3250    -1.1450 n7         1 LIG      -0.586500
     50 C19         -6.2940     0.2380    -1.9590 c3         1 LIG       0.037100
     51 H22         -6.7100     0.6680    -2.8610 h1         1 LIG       0.061800
     52 H23         -5.5350    -0.4890    -2.2330 h1         1 LIG       0.061800
     53 H24         -7.0870    -0.2560    -1.4190 h1         1 LIG       0.061800
@<TRIPOS>BOND
     1     1    14 ar  
     2     1    21 ar  
     3     1    22 1   
     4     2    18 2   
     5     2    19 1   
     6     2    25 1   
     7     3     4 1   
     8     3    16 1   
     9     3    26 1   
    10     3    27 1   
    11     4     5 1   
    12     4     9 1   
    13     4    28 1   
    14     5     6 1   
    15     5    29 1   
    16     5    30 1   
    17     6     7 1   
    18     6    31 1   
    19     6    32 1   
    20     7     8 1   
    21     7    33 1   
    22     7    34 1   
    23     8     9 1   
    24     8    35 1   
    25     8    36 1   
    26     9    37 1   
    27     9    38 1   
    28    10    11 ar  
    29    10    24 ar  
    30    10    39 1   
    31    11    12 ar  
    32    11    45 1   
    33    12    13 ar  
    34    12    40 1   
    35    13    23 ar  
    36    13    41 1   
    37    14    15 ar  
    38    15    16 1   
    39    15    17 ar  
    40    17    18 1   
    41    17    20 ar  
    42    19    20 1   
    43    19    42 1   
    44    20    21 ar  
    45    22    23 1   
    46    22    43 1   
    47    23    24 ar  
    48    24    44 1   
    49    45    46 2   
    50    45    47 2   
    51    45    49 1   
    52    48    49 1   
    53    49    50 1   
    54    50    51 1   
    55    50    52 1   
    56    50    53 1   
@<TRIPOS>SUBSTRUCTURE
     1 LIG         1 TEMP              0 ****  ****    0 ROOT
