@<TRIPOS>MOLECULE
LIG
   49    52     1     0     0
SMALL
No Charge or Current Charge


@<TRIPOS>ATOM
      1 C1          -0.4250    -2.3640     0.0180 ca         1 LIG       0.453500
      2 C2           3.4290    -4.3260    -0.0950 cc         1 LIG       0.190500
      3 C3           1.7620     1.0100    -0.2730 c3         1 LIG       0.051700
      4 C4           2.8760     2.0380    -0.3840 c6         1 LIG       0.059700
      5 C5           2.2780     3.4420    -0.5560 c6         1 LIG      -0.044400
      6 C6           3.3670     4.5140    -0.6580 c6         1 LIG      -0.022600
      7 C7           4.3190     4.4660     0.5400 c6         1 LIG       0.013500
      8 C8           4.9160     3.0680     0.7160 c6         1 LIG      -0.022600
      9 C9           3.8270     1.9970     0.8200 c6         1 LIG      -0.044400
     10 C10         -5.0000    -0.5460     0.1400 ca         1 LIG      -0.119700
     11 C11         -4.6490     0.7980     0.0610 ca         1 LIG      -0.102600
     12 C12         -3.3000     1.1180     0.0100 ca         1 LIG      -0.119700
     13 C13         -2.3160     0.1440     0.0190 ca         1 LIG      -0.170800
     14 N1           0.3020    -1.2510    -0.0830 nb         1 LIG      -0.429600
     15 C14          1.6140    -1.3530    -0.1540 ca         1 LIG       0.420100
     16 O1           2.3590    -0.2810    -0.2550 os         1 LIG      -0.298000
     17 C15          2.2180    -2.6090    -0.1210 ca         1 LIG       0.120700
     18 N2           3.5280    -3.0560    -0.1710 nd         1 LIG      -0.555500
     19 N3           2.1300    -4.7750     0.0020 na         1 LIG      -0.457900
     20 C16          1.3410    -3.6710    -0.0130 ca         1 LIG       0.489900
     21 N4           0.0220    -3.6060     0.0590 nb         1 LIG      -0.681700
     22 N5          -1.7880    -2.2710     0.0900 nu         1 LIG      -0.232500
     23 C17         -2.6770    -1.1990     0.0780 ca         1 LIG       0.077300
     24 C18         -4.0360    -1.5260     0.1400 ca         1 LIG      -0.170800
     25 H1           4.2510    -5.0120    -0.1040 h5         1 LIG       0.159000
     26 H2           1.0860     1.0720    -1.1160 h1         1 LIG       0.041400
     27 H3           1.1880     1.1480     0.6350 h1         1 LIG       0.041400
     28 H4           3.4480     1.7990    -1.2790 hc         1 LIG       0.037000
     29 H5           1.6350     3.6660     0.2960 hc         1 LIG       0.020600
     30 H6           1.6450     3.4740    -1.4400 hc         1 LIG       0.020600
     31 H7           2.9110     5.4970    -0.7370 hc         1 LIG       0.007000
     32 H8           3.9340     4.3610    -1.5740 hc         1 LIG       0.007000
     33 H9           3.7740     4.7400     1.4420 hc         1 LIG       0.003000
     34 H10          5.1090     5.2010     0.4180 hc         1 LIG       0.003000
     35 H11          5.5470     3.0380     1.6000 hc         1 LIG       0.007000
     36 H12          5.5610     2.8420    -0.1320 hc         1 LIG       0.007000
     37 H13          4.2740     1.0130     0.9020 hc         1 LIG       0.020600
     38 H14          3.2510     2.1590     1.7310 hc         1 LIG       0.020600
     39 H15         -6.0390    -0.8090     0.2000 ha         1 LIG       0.137700
     40 H16         -2.9880     2.1460    -0.0080 ha         1 LIG       0.137700
     41 H17         -1.2860     0.4210    -0.0120 ha         1 LIG       0.135600
     42 H18          1.8200    -5.7170     0.0730 hn         1 LIG       0.368300
     43 H19         -2.2090    -3.1700     0.1590 hn         1 LIG       0.272900
     44 H20         -4.3310    -2.5600     0.1920 ha         1 LIG       0.135600
     45 C19         -5.7430     1.8140     0.0630 c          1 LIG       0.742700
     46 O2          -6.8510     1.5550     0.4460 o          1 LIG      -0.573500
     47 H21         -6.1940     3.6800    -0.4940 hn         1 LIG       0.391800
     48 N6          -5.4170     3.0670    -0.3770 nt         1 LIG      -0.939600
     49 H22         -4.6770     3.1800    -1.0300 hn         1 LIG       0.391800
@<TRIPOS>BOND
     1     1    14 ar  
     2     1    21 ar  
     3     1    22 1   
     4     2    18 2   
     5     2    19 1   
     6     2    25 1   
     7     3     4 1   
     8     3    16 1   
     9     3    26 1   
    10     3    27 1   
    11     4     5 1   
    12     4     9 1   
    13     4    28 1   
    14     5     6 1   
    15     5    29 1   
    16     5    30 1   
    17     6     7 1   
    18     6    31 1   
    19     6    32 1   
    20     7     8 1   
    21     7    33 1   
    22     7    34 1   
    23     8     9 1   
    24     8    35 1   
    25     8    36 1   
    26     9    37 1   
    27     9    38 1   
    28    10    11 ar  
    29    10    24 ar  
    30    10    39 1   
    31    11    12 ar  
    32    11    45 1   
    33    12    13 ar  
    34    12    40 1   
    35    13    23 ar  
    36    13    41 1   
    37    14    15 ar  
    38    15    16 1   
    39    15    17 ar  
    40    17    18 1   
    41    17    20 ar  
    42    19    20 1   
    43    19    42 1   
    44    20    21 ar  
    45    22    23 1   
    46    22    43 1   
    47    23    24 ar  
    48    24    44 1   
    49    45    46 2   
    50    45    48 1   
    51    47    48 1   
    52    48    49 1   
@<TRIPOS>SUBSTRUCTURE
     1 LIG         1 TEMP              0 ****  ****    0 ROOT
