@<TRIPOS>MOLECULE
LIG
49 52 1 0 0
SMALL
bcc
@<TRIPOS>ATOM
   1   C1        1.4220   29.0340    6.7680   ca 1 LIG  0.9178
   2   C2       -1.4500   32.1630    8.0080   cc 1 LIG  0.3917
   3   C3       -0.5820   26.6250    8.9780   c3 1 LIG  0.1364
   4   C4       -1.2500   25.7670   10.0810   c6 1 LIG -0.0717
   5   C5       -1.3550   24.3310    9.5270   c6 1 LIG -0.0739
   6   C6       -1.6530   23.2730   10.6030   c6 1 LIG -0.0759
   7   C7       -0.7810   23.3430   11.8650   c6 1 LIG -0.0784
   8   C8       -0.7120   24.7790   12.4320   c6 1 LIG -0.0759
   9   C9       -0.3880   25.8600   11.3800   c6 1 LIG -0.0739
  10  C10        4.7370   25.7890    5.7130   ca 1 LIG -0.0775
  11  C11        4.7470   25.2230    6.9990   ca 1 LIG -0.1556
  12  C12        4.0290   25.8630    8.0180   ca 1 LIG -0.0775
  13  C13        3.3180   27.0290    7.7450   ca 1 LIG -0.1500
  14   N1        0.4880   28.1800    7.4980   nb 1 LIG -0.8231
  15  C14       -0.5680   28.6370    8.0860   ca 1 LIG  0.7575
  16   O1       -1.3890   27.8080    8.7520   os 1 LIG -0.4171
  17  C15       -0.8370   30.0590    7.9870   ca 1 LIG -0.2112
  18   N2       -1.8060   31.0220    8.4250   nd 1 LIG -0.5002
  19   N3       -0.3370   32.0960    7.3180   na 1 LIG -0.3830
  20  C16        0.0120   30.8440    7.3110   ca 1 LIG  0.4727
  21   N4        1.1720   30.2780    6.7090   nb 1 LIG -0.7721
  22   N5        2.5230   28.7210    6.1570   nu 1 LIG -0.7124
  23  C17        3.2840   27.5750    6.4550   ca 1 LIG  0.1606
  24  C18        4.0190   26.9560    5.4490   ca 1 LIG -0.1500
  25   H1       -1.9730   33.0850    8.1590   h5 1 LIG  0.0748
  26   H2       -0.5400   26.0540    8.0430   h1 1 LIG  0.0557
  27   H3        0.4540   26.7760    9.3110   h1 1 LIG  0.0557
  28   H4       -2.2580   26.1250   10.2960   hc 1 LIG  0.0717
  29   H5       -0.4090   24.0420    9.0640   hc 1 LIG  0.0442
  30   H6       -2.1060   24.2820    8.7360   hc 1 LIG  0.0442
  31   H7       -1.6090   22.2710   10.1760   hc 1 LIG  0.0417
  32   H8       -2.6840   23.4220   10.9160   hc 1 LIG  0.0417
  33   H9        0.2300   23.0140   11.6180   hc 1 LIG  0.0387
  34  H10       -1.1510   22.6520   12.6230   hc 1 LIG  0.0387
  35  H11       -0.0270   24.8110   13.2720   hc 1 LIG  0.0417
  36  H12       -1.6870   25.0180   12.8620   hc 1 LIG  0.0417
  37  H13       -0.4740   26.8530   11.8240   hc 1 LIG  0.0442
  38  H14        0.6710   25.7290   11.1480   hc 1 LIG  0.0442
  39  H15        5.2940   25.3350    4.9050   ha 1 LIG  0.1470
  40  H16        4.0090   25.4720    9.0270   ha 1 LIG  0.1470
  41  H17        2.7690   27.4990    8.5460   ha 1 LIG  0.1480
  42  H18        0.0880   32.8960    6.8440   hn 1 LIG  0.3187
  43  H19        2.9790   29.4650    5.6460   hn 1 LIG  0.4428
  44  H20        4.0300   27.3770    4.4560   ha 1 LIG  0.1480
  45  C19        5.5350   23.9570    7.2570    c 1 LIG  0.6726
  46   O2        5.9380   23.2460    6.3400    o 1 LIG -0.6112
  47  H21        6.4470   22.8400    8.6210   hn 1 LIG  0.3125
  48   N6        5.8610   23.6470    8.5030   nt 1 LIG -0.6741
  49  H22        5.3010   23.9290    9.3090   hn 1 LIG  0.3125
@<TRIPOS>BOND
    1     1    14 ar
    2     1    21 ar
    3     1    22  1
    4     2    18  2
    5     2    19  1
    6     2    25  1
    7     3     4  1
    8     3    16  1
    9     3    26  1
   10     3    27  1
   11     4     5  1
   12     4     9  1
   13     4    28  1
   14     5     6  1
   15     5    29  1
   16     5    30  1
   17     6     7  1
   18     6    31  1
   19     6    32  1
   20     7     8  1
   21     7    33  1
   22     7    34  1
   23     8     9  1
   24     8    35  1
   25     8    36  1
   26     9    37  1
   27     9    38  1
   28    10    11 ar
   29    10    24 ar
   30    10    39  1
   31    11    12 ar
   32    11    45  1
   33    12    13 ar
   34    12    40  1
   35    13    23 ar
   36    13    41  1
   37    14    15 ar
   38    15    16  1
   39    15    17 ar
   40    17    18  1
   41    17    20 ar
   42    19    20  1
   43    19    42  1
   44    20    21 ar
   45    22    23  1
   46    22    43  1
   47    23    24 ar
   48    24    44  1
   49    45    46  2
   50    45    48  1
   51    47    48  1
   52    48    49  1
@<TRIPOS>SUBSTRUCTURE
     1 LIG         1 TEMP              0 ****  ****    0 ROOT
