@<TRIPOS>MOLECULE
LIG
   54    57     1     0     0
SMALL
No Charge or Current Charge


@<TRIPOS>ATOM
      1 C1           1.4220    29.0340     6.7680 ca         1 LIG       0.929000
      2 C2          -1.4500    32.1630     8.0080 cc         1 LIG       0.394700
      3 C3          -0.5820    26.6250     8.9780 c3         1 LIG       0.137400
      4 C4          -1.2500    25.7670    10.0810 c6         1 LIG      -0.072700
      5 C5          -1.3550    24.3310     9.5270 c6         1 LIG      -0.073400
      6 C6          -1.6530    23.2730    10.6030 c6         1 LIG      -0.075900
      7 C7          -0.7810    23.3430    11.8650 c6         1 LIG      -0.078400
      8 C8          -0.7120    24.7790    12.4320 c6         1 LIG      -0.075900
      9 C9          -0.3880    25.8600    11.3800 c6         1 LIG      -0.073400
     10 C10          4.5750    25.6590     5.7240 ca         1 LIG       0.022000
     11 C11          4.5410    25.1340     7.0250 ca         1 LIG      -0.423500
     12 C12          3.9570    25.8660     8.0590 ca         1 LIG       0.254100
     13 C13          3.3290    27.0750     7.7780 ca         1 LIG      -0.232000
     14 N1           0.4880    28.1800     7.4980 nb         1 LIG      -0.827900
     15 C14         -0.5680    28.6370     8.0860 ca         1 LIG       0.757700
     16 O1          -1.3890    27.8080     8.7520 os         1 LIG      -0.416100
     17 C15         -0.8370    30.0590     7.9870 ca         1 LIG      -0.209200
     18 N2          -1.8060    31.0220     8.4250 nd         1 LIG      -0.500000
     19 N3          -0.3370    32.0960     7.3180 na         1 LIG      -0.382000
     20 C16          0.0120    30.8440     7.3110 ca         1 LIG       0.473800
     21 N4           1.1720    30.2780     6.7090 nb         1 LIG      -0.768900
     22 N5           2.5230    28.7210     6.1570 nu         1 LIG      -0.731200
     23 C17          3.2670    27.5740     6.4730 ca         1 LIG       0.252600
     24 C18          3.9360    26.8850     5.4680 ca         1 LIG      -0.233000
     25 H1          -1.9740    33.0850     8.1590 h5         1 LIG       0.076800
     26 H2          -0.5410    26.0540     8.0430 h1         1 LIG       0.053200
     27 H3           0.4540    26.7760     9.3110 h1         1 LIG       0.053200
     28 H4          -2.2580    26.1250    10.2960 hc         1 LIG       0.073700
     29 H5          -0.4100    24.0420     9.0630 hc         1 LIG       0.043700
     30 H6          -2.1060    24.2820     8.7360 hc         1 LIG       0.043700
     31 H7          -1.6090    22.2710    10.1760 hc         1 LIG       0.042400
     32 H8          -2.6840    23.4220    10.9160 hc         1 LIG       0.042400
     33 H9           0.2300    23.0140    11.6180 hc         1 LIG       0.039700
     34 H10         -1.1520    22.6520    12.6230 hc         1 LIG       0.039700
     35 H11         -0.0270    24.8110    13.2720 hc         1 LIG       0.042400
     36 H12         -1.6870    25.0180    12.8620 hc         1 LIG       0.042400
     37 H13         -0.4740    26.8530    11.8240 hc         1 LIG       0.043700
     38 H14          0.6710    25.7290    11.1480 hc         1 LIG       0.043700
     39 H15          2.8360    27.6040     8.5770 ha         1 LIG       0.164000
     40 H16          0.0890    32.8950     6.8440 hn         1 LIG       0.319700
     41 H17          3.0010    29.4770     5.6870 hn         1 LIG       0.458800
     42 H18          3.9200    27.3080     4.4790 ha         1 LIG       0.143000
     43 S1           5.2470    23.5330     7.3910 sy         1 LIG       1.540300
     44 O2           6.5940    23.7480     7.9160 o          1 LIG      -0.663200
     45 O3           5.0200    22.6430     6.2500 o          1 LIG      -0.663200
     46 H19          3.3360    22.8930     8.4740 hn         1 LIG       0.449300
     47 N6           4.3330    22.8520     8.6710 n8         1 LIG      -1.022600
     48 H20          4.5490    23.2870     9.5960 hn         1 LIG       0.449300
     49 O4           3.9530    25.3950     9.3390 os         1 LIG      -0.350900
     50 C19          3.2920    26.3700    10.1140 c3         1 LIG       0.119700
     51 H21          3.2570    26.0380    11.1810 h1         1 LIG       0.052700
     52 H22          3.8450    27.3400    10.0430 h1         1 LIG       0.052700
     53 H23          2.2490    26.5060     9.7310 h1         1 LIG       0.052700
     54 H24          5.0860    25.1230     4.9380 ha         1 LIG       0.169000
@<TRIPOS>BOND
     1     1    14 ar  
     2     1    21 ar  
     3     1    22 1   
     4     2    18 2   
     5     2    19 1   
     6     2    25 1   
     7     3     4 1   
     8     3    16 1   
     9     3    26 1   
    10     3    27 1   
    11     4     5 1   
    12     4     9 1   
    13     4    28 1   
    14     5     6 1   
    15     5    29 1   
    16     5    30 1   
    17     6     7 1   
    18     6    31 1   
    19     6    32 1   
    20     7     8 1   
    21     7    33 1   
    22     7    34 1   
    23     8     9 1   
    24     8    35 1   
    25     8    36 1   
    26     9    37 1   
    27     9    38 1   
    28    10    11 ar  
    29    10    24 ar  
    30    10    54 1   
    31    11    12 ar  
    32    11    43 1   
    33    12    13 ar  
    34    12    49 1   
    35    13    23 ar  
    36    13    39 1   
    37    14    15 ar  
    38    15    16 1   
    39    15    17 ar  
    40    17    18 1   
    41    17    20 ar  
    42    19    20 1   
    43    19    40 1   
    44    20    21 ar  
    45    22    23 1   
    46    22    41 1   
    47    23    24 ar  
    48    24    42 1   
    49    43    44 2   
    50    43    45 2   
    51    43    47 1   
    52    46    47 1   
    53    47    48 1   
    54    49    50 1   
    55    50    51 1   
    56    50    52 1   
    57    50    53 1   
@<TRIPOS>SUBSTRUCTURE
     1 LIG         1 TEMP              0 ****  ****    0 ROOT
