@<TRIPOS>MOLECULE
LIG
45 48 1 0 0
SMALL
resp
@<TRIPOS>ATOM
   1   C1       -2.2760   -0.9020    0.1320   ca 1 LIG  0.4880
   2   C2       -0.4690   -4.8240   -0.1460   cc 1 LIG  0.1953
   3   C3        1.5140    0.4100   -0.1990   c3 1 LIG  0.0550
   4   C4        3.0140    0.5430   -0.4150   c6 1 LIG  0.0422
   5   C5        3.3930    2.0250   -0.5550   c6 1 LIG -0.0290
   6   C6        4.9000    2.2070   -0.7620   c6 1 LIG -0.0173
   7   C7        5.7060    1.5370    0.3530   c6 1 LIG  0.0111
   8   C8        5.3310    0.0610    0.4980   c6 1 LIG -0.0173
   9   C9        3.8240   -0.1200    0.7070   c6 1 LIG -0.0290
  10  C10       -4.3200    3.4620   -0.5200   ca 1 LIG -0.1477
  11  C11       -3.2990    4.2170    0.0320   ca 1 LIG -0.1462
  12  C12       -2.2440    3.5680    0.6530   ca 1 LIG -0.1477
  13  C13       -2.1990    2.1870    0.7300   ca 1 LIG -0.1535
  14   N1       -1.0140   -0.4760    0.0310   nb 1 LIG -0.3965
  15  C14       -0.0520   -1.3630   -0.0900   ca 1 LIG  0.3512
  16   O1        1.1950   -0.9770   -0.2070   os 1 LIG -0.2769
  17  C15       -0.3540   -2.7260   -0.0990   ca 1 LIG  0.1314
  18   N2        0.3950   -3.8860   -0.2010   nd 1 LIG -0.5571
  19   N3       -1.7640   -4.3740   -0.0130   na 1 LIG -0.4562
  20  C16       -1.6990   -3.0190    0.0190   ca 1 LIG  0.4800
  21   N4       -2.6950   -2.1550    0.1340   nb 1 LIG -0.6907
  22   N5       -3.2690    0.0260    0.2410   nu 1 LIG -0.2806
  23  C17       -3.2160    1.4300    0.1600   ca 1 LIG  0.0774
  24  C18       -4.2760    2.0800   -0.4630   ca 1 LIG -0.1535
  25   H1       -0.2500   -5.8710   -0.1950   h5 1 LIG  0.1540
  26   H2        0.9570    0.9050   -0.9820   h1 1 LIG  0.0508
  27   H3        1.2140    0.8370    0.7500   h1 1 LIG  0.0508
  28   H4        3.2510    0.0400   -1.3510   hc 1 LIG  0.0338
  29   H5        3.0890    2.5610    0.3430   hc 1 LIG  0.0148
  30   H6        2.8500    2.4730   -1.3830   hc 1 LIG  0.0148
  31   H7        5.1390    3.2660   -0.8160   hc 1 LIG  0.0054
  32   H8        5.1840    1.7750   -1.7200   hc 1 LIG  0.0054
  33   H9        5.5140    2.0520    1.2940   hc 1 LIG  0.0002
  34  H10        6.7700    1.6380    0.1560   hc 1 LIG  0.0002
  35  H11        5.8740   -0.3850    1.3270   hc 1 LIG  0.0054
  36  H12        5.6360   -0.4780   -0.3970   hc 1 LIG  0.0054
  37  H13        3.5770   -1.1740    0.7650   hc 1 LIG  0.0148
  38  H14        3.5390    0.3250    1.6600   hc 1 LIG  0.0148
  39  H15       -5.1500    3.9450   -1.0040   ha 1 LIG  0.1407
  40  H16       -3.3270    5.2900   -0.0170   ha 1 LIG  0.1302
  41  H17       -1.4480    4.1420    1.0950   ha 1 LIG  0.1407
  42  H18       -1.3850    1.6990    1.2240   ha 1 LIG  0.1188
  43  H19       -2.5910   -4.9230    0.0510   hn 1 LIG  0.3653
  44  H20       -4.1760   -0.3810    0.2020   hn 1 LIG  0.2825
  45  H21       -5.0650    1.5000   -0.9090   ha 1 LIG  0.1188
@<TRIPOS>BOND
    1     1    14 ar
    2     1    21 ar
    3     1    22  1
    4     2    18  2
    5     2    19  1
    6     2    25  1
    7     3     4  1
    8     3    16  1
    9     3    26  1
   10     3    27  1
   11     4     5  1
   12     4     9  1
   13     4    28  1
   14     5     6  1
   15     5    29  1
   16     5    30  1
   17     6     7  1
   18     6    31  1
   19     6    32  1
   20     7     8  1
   21     7    33  1
   22     7    34  1
   23     8     9  1
   24     8    35  1
   25     8    36  1
   26     9    37  1
   27     9    38  1
   28    10    11 ar
   29    10    24 ar
   30    10    39  1
   31    11    12 ar
   32    11    40  1
   33    12    13 ar
   34    12    41  1
   35    13    23 ar
   36    13    42  1
   37    14    15 ar
   38    15    16  1
   39    15    17 ar
   40    17    18  1
   41    17    20 ar
   42    19    20  1
   43    19    43  1
   44    20    21 ar
   45    22    23  1
   46    22    44  1
   47    23    24 ar
   48    24    45  1
@<TRIPOS>SUBSTRUCTURE
     1 LIG         1 TEMP              0 ****  ****    0 ROOT
