@<TRIPOS>MOLECULE
LIG
   49    52     1     0     0
SMALL
No Charge or Current Charge


@<TRIPOS>ATOM
      1 C1           1.6760    29.2130     6.9300 ca         1 LIG       0.000000
      2 C2          -1.6820    31.7650     8.2970 cc         1 LIG       0.000000
      3 C3          -0.2320    26.3840     9.2700 c3         1 LIG       0.000000
      4 C4          -1.1380    25.5790    10.2360 c6         1 LIG       0.000000
      5 C5          -0.6590    24.1040    10.3260 c6         1 LIG       0.000000
      6 C6          -1.5670    23.2810    11.2670 c6         1 LIG       0.000000
      7 C7          -1.6270    23.9040    12.6810 c6         1 LIG       0.000000
      8 C8          -2.0830    25.3830    12.6170 c6         1 LIG       0.000000
      9 C9          -1.1970    26.2160    11.6560 c6         1 LIG       0.000000
     10 C10          4.0210    25.2590     6.4000 ca         1 LIG       0.000000
     11 C11          5.0050    25.2910     5.4040 ca         1 LIG       0.000000
     12 C12          5.2710    26.4890     4.7260 ca         1 LIG       0.000000
     13 C13          4.5430    27.6460     5.0370 ca         1 LIG       0.000000
     14 N1           1.0170    28.2740     7.6210 nb         1 LIG       0.000000
     15 C14         -0.1390    28.6010     8.2460 ca         1 LIG       0.000000
     16 O1          -0.8160    27.6730     9.0030 os         1 LIG       0.000000
     17 C15         -0.6100    29.9240     8.1360 ca         1 LIG       0.000000
     18 N2          -1.7670    30.4950     8.6860 nd         1 LIG       0.000000
     19 N3          -0.5300    32.0000     7.5360 na         1 LIG       0.000000
     20 C16          0.1390    30.8190     7.4310 ca         1 LIG       0.000000
     21 N4           1.2950    30.5160     6.7910 nb         1 LIG       0.000000
     22 N5           2.8520    28.8570     6.2550 nu         1 LIG       0.000000
     23 C17          3.5500    27.6410     6.0360 ca         1 LIG       0.000000
     24 C18          3.3080    26.4370     6.7380 ca         1 LIG       0.000000
     25 H1          -2.4040    32.5520     8.5110 h5         1 LIG       0.000000
     26 H2          -0.1150    25.8240     8.3350 h1         1 LIG       0.000000
     27 H3           0.7640    26.4900     9.7200 h1         1 LIG       0.000000
     28 H4          -2.1470    25.5890     9.8020 hc         1 LIG       0.000000
     29 H5           0.3790    24.0680    10.6880 hc         1 LIG       0.000000
     30 H6          -0.6590    23.6470     9.3270 hc         1 LIG       0.000000
     31 H7          -1.2080    22.2450    11.3270 hc         1 LIG       0.000000
     32 H8          -2.5780    23.2430    10.8430 hc         1 LIG       0.000000
     33 H9          -0.6410    23.8380    13.1570 hc         1 LIG       0.000000
     34 H10         -2.3180    23.3300    13.3120 hc         1 LIG       0.000000
     35 H11         -2.0550    25.8210    13.6230 hc         1 LIG       0.000000
     36 H12         -3.1300    25.4260    12.2850 hc         1 LIG       0.000000
     37 H13         -1.5890    27.2410    11.5970 hc         1 LIG       0.000000
     38 H14         -0.1830    26.2960    12.0710 hc         1 LIG       0.000000
     39 O2           3.7710    24.0390     7.0120 os         1 LIG       0.000000
     40 H15          5.5590    24.3930     5.1460 ha         1 LIG       0.000000
     41 H16          6.0360    26.5220     3.9520 ha         1 LIG       0.000000
     42 H17          4.7590    28.5520     4.4840 ha         1 LIG       0.000000
     43 H18         -0.2710    32.8670     7.1040 hn         1 LIG       0.000000
     44 H19          3.2690    29.6390     5.7730 hn         1 LIG       0.000000
     45 H20          2.5630    26.3970     7.5240 ha         1 LIG       0.000000
     46 C19          2.8290    23.9200     8.0910 c3         1 LIG       0.000000
     47 H21          1.8140    24.1620     7.7520 h1         1 LIG       0.000000
     48 H22          2.8260    22.8990     8.4900 h1         1 LIG       0.000000
     49 H23          3.0940    24.5990     8.9140 h1         1 LIG       0.000000
@<TRIPOS>BOND
     1     1    14 ar  
     2     1    21 ar  
     3     1    22 1   
     4     2    18 2   
     5     2    19 1   
     6     2    25 1   
     7     3     4 1   
     8     3    16 1   
     9     3    26 1   
    10     3    27 1   
    11     4     5 1   
    12     4     9 1   
    13     4    28 1   
    14     5     6 1   
    15     5    29 1   
    16     5    30 1   
    17     6     7 1   
    18     6    31 1   
    19     6    32 1   
    20     7     8 1   
    21     7    33 1   
    22     7    34 1   
    23     8     9 1   
    24     8    35 1   
    25     8    36 1   
    26     9    37 1   
    27     9    38 1   
    28    10    11 ar  
    29    10    24 ar  
    30    10    39 1   
    31    11    12 ar  
    32    11    40 1   
    33    12    13 ar  
    34    12    41 1   
    35    13    23 ar  
    36    13    42 1   
    37    14    15 ar  
    38    15    16 1   
    39    15    17 ar  
    40    17    18 1   
    41    17    20 ar  
    42    19    20 1   
    43    19    43 1   
    44    20    21 ar  
    45    22    23 1   
    46    22    44 1   
    47    23    24 ar  
    48    24    45 1   
    49    39    46 1   
    50    46    47 1   
    51    46    48 1   
    52    46    49 1   
@<TRIPOS>SUBSTRUCTURE
     1 LIG         1 TEMP              0 ****  ****    0 ROOT
