@<TRIPOS>MOLECULE
LIG
   54    57     1     0     0
SMALL
No Charge or Current Charge


@<TRIPOS>ATOM
      1 C1           0.7580    -2.6440     0.0330 ca         1 32        0.384100
      2 C2           4.9180    -3.8210    -0.0510 cc         1 32        0.181300
      3 C3           2.2520     1.0870    -0.3090 c3         1 32        0.051900
      4 C4           3.1490     2.3070    -0.4500 c6         1 32       -0.000300
      5 C5           2.2920     3.5670    -0.6410 c6         1 32       -0.018400
      6 C6           3.1550     4.8250    -0.7760 c6         1 32       -0.007800
      7 C7           4.1070     4.9840     0.4120 c6         1 32       -0.012900
      8 C8           4.9620     3.7290     0.6080 c6         1 32       -0.007800
      9 C9           4.0980     2.4730     0.7450 c6         1 32       -0.018400
     10 C10         -4.0820    -1.7560     0.0990 ca         1 32       -0.108800
     11 C11         -3.9830    -0.3720     0.0250 ca         1 32       -0.069200
     12 C12         -2.7230     0.2110    -0.0270 ca         1 32        0.066300
     13 C13         -1.5760    -0.5620    -0.0120 ca         1 32        0.028300
     14 N1           1.2540    -1.4130    -0.0810 nb         1 32       -0.308600
     15 C14          2.5610    -1.2590    -0.1500 ca         1 32        0.273100
     16 O1           3.0850    -0.0650    -0.2680 os         1 32       -0.267300
     17 C15          3.3970    -2.3730    -0.1000 ca         1 32        0.246200
     18 N2           4.7680    -2.5580    -0.1430 nd         1 32       -0.573400
     19 N3           3.7310    -4.5130     0.0520 na         1 32       -0.455300
     20 C16          2.7430    -3.5840     0.0210 ca         1 32        0.423700
     21 N4           1.4360    -3.7750     0.0910 nb         1 32       -0.629200
     22 N5          -0.6000    -2.8210     0.1000 nu         1 32       -0.195800
     23 C17         -1.6780    -1.9480     0.0730 ca         1 32        0.012500
     24 C18         -2.9490    -2.5340     0.1290 ca         1 32       -0.242200
     25 H1           5.8580    -4.3350    -0.0510 h5         1 32        0.165900
     26 H2           1.5740     1.0010    -1.1470 h1         1 32        0.072900
     27 H3           1.6670     1.1330     0.6020 h1         1 32        0.072900
     28 H4           3.7490     2.1640    -1.3460 hc         1 32        0.044700
     29 H5           1.6250     3.6820     0.2130 hc         1 32        0.007800
     30 H6           1.6580     3.4590    -1.5180 hc         1 32        0.007800
     31 H7           2.5190     5.7010    -0.8680 hc         1 32        0.008500
     32 H8           3.7350     4.7630    -1.6960 hc         1 32        0.008500
     33 H9           3.5270     5.1690     1.3150 hc         1 32        0.005900
     34 H10          4.7420     5.8530     0.2680 hc         1 32        0.005900
     35 H11          5.5930     3.8390     1.4860 hc         1 32        0.008500
     36 H12          5.6320     3.6130    -0.2420 hc         1 32        0.008500
     37 H13          4.7250     1.5940     0.8410 hc         1 32        0.007800
     38 H14          3.5080     2.5410     1.6590 hc         1 32        0.007800
     39 H15         -0.6230    -0.0870    -0.0810 ha         1 32       -0.017700
     40 H16          3.6100    -5.4970     0.1340 hn         1 32        0.372200
     41 H17         -0.8360    -3.7850     0.1760 hn         1 32        0.262300
     42 H18         -3.0410    -3.6030     0.1910 ha         1 32        0.172200
     43 S1          -5.4480     0.6170     0.0280 sy         1 32        1.028500
     44 O2          -5.3690     1.5400     1.1160 o          1 32       -0.532300
     45 O3          -6.5520    -0.2830    -0.0940 o          1 32       -0.532300
     46 H19         -5.5610     0.9560    -2.1690 hn         1 32        0.386600
     47 N6          -5.4260     1.5080    -1.3460 n8         1 32       -0.832000
     48 H20         -4.6330     2.1160    -1.3990 hn         1 32        0.386600
     49 O4          -2.6250     1.5580    -0.1580 os         1 32       -0.295400
     50 C19         -2.2200     2.2780     0.9960 c3         1 32        0.009800
     51 H21         -2.1980     3.3180     0.7080 h1         1 32        0.079800
     52 H22         -2.9320     2.1350     1.7960 h1         1 32        0.079800
     53 H23         -1.2320     1.9670     1.3100 h1         1 32        0.079800
     54 H24         -5.0530    -2.2100     0.1360 ha         1 32        0.166600
@<TRIPOS>BOND
     1     1    14 ar  
     2     1    21 ar  
     3     1    22 1   
     4     2    18 2   
     5     2    19 1   
     6     2    25 1   
     7     3     4 1   
     8     3    16 1   
     9     3    26 1   
    10     3    27 1   
    11     4     5 1   
    12     4     9 1   
    13     4    28 1   
    14     5     6 1   
    15     5    29 1   
    16     5    30 1   
    17     6     7 1   
    18     6    31 1   
    19     6    32 1   
    20     7     8 1   
    21     7    33 1   
    22     7    34 1   
    23     8     9 1   
    24     8    35 1   
    25     8    36 1   
    26     9    37 1   
    27     9    38 1   
    28    10    11 ar  
    29    10    24 ar  
    30    10    54 1   
    31    11    12 ar  
    32    11    43 1   
    33    12    13 ar  
    34    12    49 1   
    35    13    23 ar  
    36    13    39 1   
    37    14    15 ar  
    38    15    16 1   
    39    15    17 ar  
    40    17    18 1   
    41    17    20 ar  
    42    19    20 1   
    43    19    40 1   
    44    20    21 ar  
    45    22    23 1   
    46    22    41 1   
    47    23    24 ar  
    48    24    42 1   
    49    43    44 2   
    50    43    45 2   
    51    43    47 1   
    52    46    47 1   
    53    47    48 1   
    54    49    50 1   
    55    50    51 1   
    56    50    52 1   
    57    50    53 1   
@<TRIPOS>SUBSTRUCTURE
     1 32          1 TEMP              0 ****  ****    0 ROOT
