@<TRIPOS>MOLECULE
L03
   50    53     1     0     0
SMALL
No Charge or Current Charge


@<TRIPOS>ATOM
      1 C1           0.4490    -2.5130     0.0260 ca         1 L03       0.438200
      2 C2           4.5350    -3.9190    -0.1100 cc         1 L03       0.184900
      3 C3           2.1420     1.1330    -0.2910 c3         1 L03       0.035700
      4 C4           3.1040     2.3060    -0.3990 c6         1 L03       0.047800
      5 C5           2.3180     3.6140    -0.5690 c6         1 L03      -0.036100
      6 C6           3.2490     4.8260    -0.6670 c6         1 L03      -0.021100
      7 C7           4.1960     4.9070     0.5320 c6         1 L03       0.014100
      8 C8           4.9810     3.6050     0.7060 c6         1 L03      -0.021100
      9 C9           4.0500     2.3940     0.8070 c6         1 L03      -0.036100
     10 C10         -4.3320    -1.3480     0.2580 ca         1 L03      -0.140000
     11 C11         -4.1520     0.0240     0.1390 ca         1 L03      -0.069900
     12 C12         -2.8710     0.5390     0.0250 ca         1 L03      -0.140000
     13 C13         -1.7680    -0.2950     0.0090 ca         1 L03      -0.165800
     14 N1           1.0110    -1.3100    -0.0870 nb         1 L03      -0.414800
     15 C14          2.3240    -1.2280    -0.1660 ca         1 L03       0.407600
     16 O1           2.9120    -0.0640    -0.2770 os         1 L03      -0.299900
     17 C15          3.0970    -2.3880    -0.1340 ca         1 L03       0.157400
     18 N2           4.4550    -2.6480    -0.1910 nd         1 L03      -0.560800
     19 N3           3.3130    -4.5440     0.0000 na         1 L03      -0.447100
     20 C16          2.3780    -3.5620    -0.0140 ca         1 L03       0.456400
     21 N4           1.0630    -3.6800     0.0690 nb         1 L03      -0.660000
     22 N5          -0.9160    -2.6120     0.1110 nu         1 L03      -0.236800
     23 C17         -1.9420    -1.6750     0.1150 ca         1 L03       0.099800
     24 C18         -3.2400    -2.1840     0.2430 ca         1 L03      -0.165800
     25 H1           5.4450    -4.4840    -0.1220 h5         1 L03       0.162900
     26 H2           1.4660     1.1040    -1.1350 h1         1 L03       0.055000
     27 H3           1.5550     1.1880     0.6170 h1         1 L03       0.055000
     28 H4           3.7050     2.1500    -1.2930 hc         1 L03       0.036700
     29 H5           1.6490     3.7450     0.2820 hc         1 L03       0.019800
     30 H6           1.6890     3.5600    -1.4540 hc         1 L03       0.019800
     31 H7           2.6600     5.7360    -0.7440 hc         1 L03       0.006400
     32 H8           3.8330     4.7550    -1.5830 hc         1 L03       0.006400
     33 H9           3.6180     5.1020     1.4340 hc         1 L03       0.002600
     34 H10          4.8780     5.7450     0.4130 hc         1 L03       0.002600
     35 H11          5.6090     3.6610     1.5910 hc         1 L03       0.006400
     36 H12          5.6520     3.4720    -0.1410 hc         1 L03       0.006400
     37 H13          4.6290     1.4810     0.8880 hc         1 L03       0.019800
     38 H14          3.4560     2.4730     1.7170 hc         1 L03       0.019800
     39 H15         -5.3180    -1.7530     0.3820 ha         1 L03       0.168900
     40 H16         -2.7280     1.6010    -0.0330 ha         1 L03       0.168900
     41 H17         -0.7870     0.1150    -0.0740 ha         1 L03       0.132800
     42 H18          3.1380    -5.5200     0.0790 hn         1 L03       0.367600
     43 H19         -1.2050    -3.5600     0.1990 hn         1 L03       0.271700
     44 H20         -3.3870    -3.2450     0.3440 ha         1 L03       0.132800
     45 S1          -5.5480     1.1030     0.1230 sy         1 L03       1.053200
     46 O2          -5.0990     2.3950     0.5320 o          1 L03      -0.532800
     47 O3          -6.6220     0.4240     0.7750 o          1 L03      -0.532800
     48 H21         -5.3630     1.7590    -2.0170 hn         1 L03       0.394100
     49 N6          -6.0210     1.2750    -1.4410 n8         1 L03      -0.865300
     50 H22         -6.3850     0.4400    -1.8530 hn         1 L03       0.394100
@<TRIPOS>BOND
     1     1    14 ar  
     2     1    21 ar  
     3     1    22 1   
     4     2    18 2   
     5     2    19 1   
     6     2    25 1   
     7     3     4 1   
     8     3    16 1   
     9     3    26 1   
    10     3    27 1   
    11     4     5 1   
    12     4     9 1   
    13     4    28 1   
    14     5     6 1   
    15     5    29 1   
    16     5    30 1   
    17     6     7 1   
    18     6    31 1   
    19     6    32 1   
    20     7     8 1   
    21     7    33 1   
    22     7    34 1   
    23     8     9 1   
    24     8    35 1   
    25     8    36 1   
    26     9    37 1   
    27     9    38 1   
    28    10    11 ar  
    29    10    24 ar  
    30    10    39 1   
    31    11    12 ar  
    32    11    45 1   
    33    12    13 ar  
    34    12    40 1   
    35    13    23 ar  
    36    13    41 1   
    37    14    15 ar  
    38    15    16 1   
    39    15    17 ar  
    40    17    18 1   
    41    17    20 ar  
    42    19    20 1   
    43    19    42 1   
    44    20    21 ar  
    45    22    23 1   
    46    22    43 1   
    47    23    24 ar  
    48    24    44 1   
    49    45    46 2   
    50    45    47 2   
    51    45    49 1   
    52    48    49 1   
    53    49    50 1   
@<TRIPOS>SUBSTRUCTURE
     1 L03         1 TEMP              0 ****  ****    0 ROOT
