@<TRIPOS>MOLECULE
L04
   46    49     1     0     0
SMALL
No Charge or Current Charge


@<TRIPOS>ATOM
      1 C1          -1.8470    -1.6760     0.0550 ca         1 L04       0.403800
      2 C2           0.8860    -5.0300    -0.0080 cc         1 L04       0.201000
      3 C3           1.5060     0.5240     0.3390 c3         1 L04      -0.000900
      4 C4           2.9400     1.0280     0.3900 c6         1 L04       0.020900
      5 C5           3.7310     0.6550    -0.8710 c6         1 L04      -0.013300
      6 C6           5.1590     1.2070    -0.8270 c6         1 L04      -0.013200
      7 C7           5.1720     2.7210    -0.6020 c6         1 L04       0.015500
      8 C8           4.3820     3.1010     0.6530 c6         1 L04      -0.013200
      9 C9           2.9550     2.5470     0.6100 c6         1 L04      -0.013300
     10 C10         -4.2150     2.3230    -1.0650 ca         1 L04      -0.212700
     11 C11         -3.7220     3.1400    -0.0650 ca         1 L04       0.280800
     12 C12         -2.9790     2.5880     0.9720 ca         1 L04      -0.212700
     13 C13         -2.7440     1.2300     1.0060 ca         1 L04      -0.208500
     14 N1          -0.7260    -0.9550     0.1620 nb         1 L04      -0.311800
     15 C14          0.4300    -1.5770     0.1810 ca         1 L04       0.281500
     16 O1           1.5460    -0.8970     0.2770 os         1 L04      -0.253300
     17 C15          0.4750    -2.9710     0.1000 ca         1 L04       0.184000
     18 N2           1.4910    -3.9120     0.0940 nd         1 L04      -0.569200
     19 N3          -0.4850    -4.9110    -0.0730 na         1 L04      -0.465300
     20 C16         -0.7600    -3.5830    -0.0040 ca         1 L04       0.454700
     21 N4          -1.9440    -2.9910    -0.0330 nb         1 L04      -0.660200
     22 N5          -3.0290    -1.0020     0.0380 nu         1 L04      -0.258600
     23 C17         -3.2220     0.3990    -0.0040 ca         1 L04       0.096000
     24 C18         -3.9530     0.9590    -1.0340 ca         1 L04      -0.208500
     25 H1           1.3590    -5.9900    -0.0420 h5         1 L04       0.152900
     26 H2           0.9810     0.9040    -0.5280 h1         1 L04       0.073200
     27 H3           0.9540     0.8220     1.2210 h1         1 L04       0.073200
     28 H4           3.4200     0.5540     1.2450 hc         1 L04       0.038000
     29 H5           3.2170     1.0610    -1.7430 hc         1 L04       0.012600
     30 H6           3.7490    -0.4220    -0.9890 hc         1 L04       0.012600
     31 H7           5.6790     0.9600    -1.7480 hc         1 L04       0.002900
     32 H8           5.7070     0.7190    -0.0220 hc         1 L04       0.002900
     33 H9           4.7320     3.2160    -1.4660 hc         1 L04      -0.002600
     34 H10          6.1940     3.0820    -0.5240 hc         1 L04      -0.002600
     35 H11          4.3560     4.1810     0.7690 hc         1 L04       0.002900
     36 H12          4.8920     2.7070     1.5310 hc         1 L04       0.002900
     37 H13          2.4350     2.7960     1.5320 hc         1 L04       0.012600
     38 H14          2.4070     3.0330    -0.1970 hc         1 L04       0.012600
     39 H15         -4.7920     2.7390    -1.8730 ha         1 L04       0.161900
     40 O2          -3.9310     4.4770    -0.0410 oh         1 L04      -0.540300
     41 H16         -2.6080     3.2330     1.7460 ha         1 L04       0.161900
     42 H17         -2.1830     0.8040     1.8150 ha         1 L04       0.135800
     43 H18         -1.1530    -5.6430    -0.1520 hn         1 L04       0.367200
     44 H19         -3.8190    -1.5840    -0.1260 hn         1 L04       0.278500
     45 H20         -4.3220     0.3320    -1.8260 ha         1 L04       0.135800
     46 H21         -4.4430     4.7480    -0.7900 ho         1 L04       0.381700
@<TRIPOS>BOND
     1     1    14 ar  
     2     1    21 ar  
     3     1    22 1   
     4     2    18 2   
     5     2    19 1   
     6     2    25 1   
     7     3     4 1   
     8     3    16 1   
     9     3    26 1   
    10     3    27 1   
    11     4     5 1   
    12     4     9 1   
    13     4    28 1   
    14     5     6 1   
    15     5    29 1   
    16     5    30 1   
    17     6     7 1   
    18     6    31 1   
    19     6    32 1   
    20     7     8 1   
    21     7    33 1   
    22     7    34 1   
    23     8     9 1   
    24     8    35 1   
    25     8    36 1   
    26     9    37 1   
    27     9    38 1   
    28    10    11 ar  
    29    10    24 ar  
    30    10    39 1   
    31    11    12 ar  
    32    11    40 1   
    33    12    13 ar  
    34    12    41 1   
    35    13    23 ar  
    36    13    42 1   
    37    14    15 ar  
    38    15    16 1   
    39    15    17 ar  
    40    17    18 1   
    41    17    20 ar  
    42    19    20 1   
    43    19    43 1   
    44    20    21 ar  
    45    22    23 1   
    46    22    44 1   
    47    23    24 ar  
    48    24    45 1   
    49    40    46 1   
@<TRIPOS>SUBSTRUCTURE
     1 L04         1 TEMP              0 ****  ****    0 ROOT
