@<TRIPOS>MOLECULE
L12
   56    59     1     0     0
SMALL
No Charge or Current Charge


@<TRIPOS>ATOM
      1 C1          -0.9800    -2.5540    -0.0740 ca         1 L12       0.482600
      2 C2          -5.1070    -3.7840     0.3250 cc         1 L12       0.211900
      3 C3          -2.5020     1.1660     0.2490 c3         1 L12       0.041600
      4 C4          -3.4070     2.3800     0.3820 c6         1 L12       0.038800
      5 C5          -2.5590     3.6570     0.4750 c6         1 L12      -0.038500
      6 C6          -3.4320     4.9100     0.5970 c6         1 L12      -0.032400
      7 C7          -4.4420     5.0040    -0.5490 c6         1 L12       0.012800
      8 C8          -5.2890     3.7330    -0.6470 c6         1 L12      -0.032400
      9 C9          -4.4150     2.4810    -0.7700 c6         1 L12      -0.038500
     10 C10          2.4580     0.3530    -0.3320 ca         1 L12      -0.120300
     11 C11          3.7090    -0.2160    -0.5050 ca         1 L12       0.063800
     12 C12          3.8230    -1.5980    -0.6020 ca         1 L12      -0.120300
     13 C13          2.7000    -2.3860    -0.5060 ca         1 L12      -0.202200
     14 N1          -1.4860    -1.3270     0.0410 nb         1 L12      -0.412900
     15 C14         -2.7880    -1.1880     0.1920 ca         1 L12       0.361800
     16 O1          -3.3200     0.0020     0.3070 os         1 L12      -0.281300
     17 C15         -3.6080    -2.3150     0.2310 ca         1 L12       0.148400
     18 N2          -4.9700    -2.5160     0.3710 nd         1 L12      -0.561600
     19 N3          -3.9190    -4.4620     0.1620 na         1 L12      -0.469000
     20 C16         -2.9450    -3.5200     0.1000 ca         1 L12       0.480600
     21 N4          -1.6430    -3.6960    -0.0540 nb         1 L12      -0.681700
     22 N5           0.3720    -2.7130    -0.2330 nu         1 L12      -0.245400
     23 C17          1.4340    -1.8200    -0.3170 ca         1 L12       0.099900
     24 C18          1.3240    -0.4330    -0.2340 ca         1 L12      -0.202200
     25 H1          -6.0370    -4.3100     0.4020 h5         1 L12       0.152800
     26 H2          -1.7800     1.1260     1.0550 h1         1 L12       0.048300
     27 H3          -1.9660     1.1750    -0.6910 h1         1 L12       0.048300
     28 H4          -3.9610     2.2690     1.3130 hc         1 L12       0.040600
     29 H5          -1.9350     3.7410    -0.4140 hc         1 L12       0.024300
     30 H6          -1.8830     3.5950     1.3250 hc         1 L12       0.024300
     31 H7          -2.8030     5.7950     0.6180 hc         1 L12       0.010600
     32 H8          -3.9650     4.8830     1.5450 hc         1 L12       0.010600
     33 H9          -3.9090     5.1540    -1.4870 hc         1 L12       0.004500
     34 H10         -5.0810     5.8720    -0.4130 hc         1 L12       0.004500
     35 H11         -5.9630     3.7960    -1.4960 hc         1 L12       0.010600
     36 H12         -5.9150     3.6480     0.2400 hc         1 L12       0.010600
     37 H13         -5.0350     1.5930    -0.7960 hc         1 L12       0.024300
     38 H14         -3.8720     2.5150    -1.7140 hc         1 L12       0.024300
     39 H15          2.3610     1.4210    -0.2940 ha         1 L12       0.157900
     40 H16          4.7820    -2.0470    -0.7740 ha         1 L12       0.157900
     41 H17          2.7970    -3.4550    -0.5900 ha         1 L12       0.140600
     42 H18         -3.7890    -5.4460     0.0970 hn         1 L12       0.371400
     43 H19          0.6170    -3.6740    -0.3140 hn         1 L12       0.274300
     44 H20          0.3680     0.0210    -0.1070 ha         1 L12       0.140600
     45 S1           5.1480     0.8030    -0.5990 sy         1 L12       0.759500
     46 O2           4.7270     2.0980    -1.0350 o          1 L12      -0.487100
     47 O3           6.1450     0.0670    -1.3140 o          1 L12      -0.487100
     48 N6           5.7210     0.9920     0.9320 n3         1 L12      -0.231600
     49 C19          4.9570     1.8410     1.8350 c3         1 L12      -0.094600
     50 H21          5.6120     2.1420     2.6430 h1         1 L12       0.075100
     51 H22          4.6270     2.7260     1.3150 h1         1 L12       0.075100
     52 H23          4.0990     1.3240     2.2600 h1         1 L12       0.075100
     53 C20          6.3550    -0.1590     1.5600 c3         1 L12      -0.094600
     54 H24          6.9680     0.2030     2.3750 h1         1 L12       0.075100
     55 H25          5.6280    -0.8630     1.9600 h1         1 L12       0.075100
     56 H26          6.9920    -0.6590     0.8490 h1         1 L12       0.075100
@<TRIPOS>BOND
     1     1    14 ar  
     2     1    21 ar  
     3     1    22 1   
     4     2    18 2   
     5     2    19 1   
     6     2    25 1   
     7     3     4 1   
     8     3    16 1   
     9     3    26 1   
    10     3    27 1   
    11     4     5 1   
    12     4     9 1   
    13     4    28 1   
    14     5     6 1   
    15     5    29 1   
    16     5    30 1   
    17     6     7 1   
    18     6    31 1   
    19     6    32 1   
    20     7     8 1   
    21     7    33 1   
    22     7    34 1   
    23     8     9 1   
    24     8    35 1   
    25     8    36 1   
    26     9    37 1   
    27     9    38 1   
    28    10    11 ar  
    29    10    24 ar  
    30    10    39 1   
    31    11    12 ar  
    32    11    45 1   
    33    12    13 ar  
    34    12    40 1   
    35    13    23 ar  
    36    13    41 1   
    37    14    15 ar  
    38    15    16 1   
    39    15    17 ar  
    40    17    18 1   
    41    17    20 ar  
    42    19    20 1   
    43    19    42 1   
    44    20    21 ar  
    45    22    23 1   
    46    22    43 1   
    47    23    24 ar  
    48    24    44 1   
    49    45    46 2   
    50    45    47 2   
    51    45    48 1   
    52    48    49 1   
    53    48    53 1   
    54    49    50 1   
    55    49    51 1   
    56    49    52 1   
    57    53    54 1   
    58    53    55 1   
    59    53    56 1   
@<TRIPOS>SUBSTRUCTURE
     1 L12         1 TEMP              0 ****  ****    0 ROOT
