@<TRIPOS>MOLECULE
LIG
   45    48     1     0     0
SMALL
No Charge or Current Charge


@<TRIPOS>ATOM
      1 C1           0.4130     1.9960     0.2550 ca         1 17        0.475900
      2 C2          -2.9020     4.7180    -0.3030 cc         1 17        0.197500
      3 C3          -2.4030    -0.8530    -0.1680 c3         1 17        0.068100
      4 C4          -3.6790    -1.6320    -0.4450 c6         1 17        0.007400
      5 C5          -3.3700    -3.1340    -0.5220 c6         1 17       -0.020300
      6 C6          -4.6320    -3.9600    -0.7880 c6         1 17       -0.016300
      7 C7          -5.7200    -3.6760     0.2500 c6         1 17        0.010000
      8 C8          -6.0310    -2.1800     0.3310 c6         1 17       -0.016300
      9 C9          -4.7690    -1.3550     0.5990 c6         1 17       -0.020300
     10 C10          4.3040    -0.9380     0.1230 ca         1 17       -0.108900
     11 C11          3.6750    -2.0990     0.5270 ca         1 17       -0.084000
     12 C12          2.3460    -2.0180     0.9050 ca         1 17       -0.165700
     13 C13          1.6560    -0.8180     0.8870 ca         1 17       -0.030900
     14 N1          -0.5260     1.0570     0.1230 nb         1 17       -0.329900
     15 C14         -1.7710     1.4290    -0.0860 ca         1 17        0.269300
     16 O1          -2.7150     0.5340    -0.2350 os         1 17       -0.266000
     17 C15         -2.0920     2.7850    -0.1520 ca         1 17        0.185800
     18 N2          -3.2640     3.4960    -0.3470 nd         1 17       -0.562500
     19 N3          -1.5510     4.8870    -0.0910 na         1 17       -0.449200
     20 C16         -1.0200     3.6420     0.0090 ca         1 17        0.447200
     21 N4           0.2430     3.3050     0.2110 nb         1 17       -0.667100
     22 N5           1.7080     1.6080     0.4520 nu         1 17       -0.303600
     23 C17          2.3010     0.3400     0.4640 ca         1 17        0.028100
     24 C18          3.6390     0.2700     0.0810 ca         1 17       -0.051300
     25 H1          -3.5520     5.5620    -0.4160 h5         1 17        0.154300
     26 H2          -1.6360    -1.0790    -0.8960 h1         1 17        0.069100
     27 H3          -2.0120    -1.0790     0.8170 h1         1 17        0.069100
     28 H4          -4.0490    -1.3090    -1.4170 hc         1 17        0.037700
     29 H5          -2.9230    -3.4580     0.4180 hc         1 17        0.011800
     30 H6          -2.6330    -3.3250    -1.2980 hc         1 17        0.011800
     31 H7          -4.3850    -5.0180    -0.7950 hc         1 17        0.006600
     32 H8          -5.0110    -3.7230    -1.7810 hc         1 17        0.006600
     33 H9          -5.3860    -4.0280     1.2250 hc         1 17        0.000500
     34 H10         -6.6200    -4.2350     0.0100 hc         1 17        0.000500
     35 H11         -6.7660    -1.9910     1.1080 hc         1 17        0.006600
     36 H12         -6.4800    -1.8540    -0.6050 hc         1 17        0.006600
     37 H13         -5.0070    -0.2980     0.6120 hc         1 17        0.011800
     38 H14         -4.3820    -1.6030     1.5880 hc         1 17        0.011800
     39 Br1          6.1290    -0.9990    -0.4020 br         1 17       -0.079600
     40 H15          4.2050    -3.0310     0.5490 ha         1 17        0.135800
     41 H16          1.8370    -2.9070     1.2320 ha         1 17        0.146900
     42 H17          0.6340    -0.7780     1.1930 ha         1 17        0.019600
     43 H18         -1.0530     5.7440    -0.0210 hn         1 17        0.365400
     44 H19          2.3350     2.3810     0.4460 hn         1 17        0.290400
     45 H20          4.1520     1.1510    -0.2530 ha         1 17        0.119700
@<TRIPOS>BOND
     1     1    14 ar  
     2     1    21 ar  
     3     1    22 1   
     4     2    18 2   
     5     2    19 1   
     6     2    25 1   
     7     3     4 1   
     8     3    16 1   
     9     3    26 1   
    10     3    27 1   
    11     4     5 1   
    12     4     9 1   
    13     4    28 1   
    14     5     6 1   
    15     5    29 1   
    16     5    30 1   
    17     6     7 1   
    18     6    31 1   
    19     6    32 1   
    20     7     8 1   
    21     7    33 1   
    22     7    34 1   
    23     8     9 1   
    24     8    35 1   
    25     8    36 1   
    26     9    37 1   
    27     9    38 1   
    28    10    11 ar  
    29    10    24 ar  
    30    10    39 1   
    31    11    12 ar  
    32    11    40 1   
    33    12    13 ar  
    34    12    41 1   
    35    13    23 ar  
    36    13    42 1   
    37    14    15 ar  
    38    15    16 1   
    39    15    17 ar  
    40    17    18 1   
    41    17    20 ar  
    42    19    20 1   
    43    19    43 1   
    44    20    21 ar  
    45    22    23 1   
    46    22    44 1   
    47    23    24 ar  
    48    24    45 1   
@<TRIPOS>SUBSTRUCTURE
     1 17          1 TEMP              0 ****  ****    0 ROOT
