@<TRIPOS>MOLECULE
LIG
50 53 1 0 0
SMALL
bcc
@<TRIPOS>ATOM
   1   C1        1.4220   29.0340    6.7680   ca 1 LIG  0.9110
   2   C2       -1.4500   32.1630    8.0080   cc 1 LIG  0.3927
   3   C3       -0.5820   26.6250    8.9780   c3 1 LIG  0.1364
   4   C4       -1.2500   25.7670   10.0810   c6 1 LIG -0.0717
   5   C5       -1.3550   24.3310    9.5270   c6 1 LIG -0.0739
   6   C6       -1.6530   23.2730   10.6030   c6 1 LIG -0.0759
   7   C7       -0.7810   23.3430   11.8650   c6 1 LIG -0.0784
   8   C8       -0.7120   24.7790   12.4320   c6 1 LIG -0.0759
   9   C9       -0.3880   25.8600   11.3800   c6 1 LIG -0.0739
  10  C10        4.6850   25.7560    5.5950   ca 1 LIG -0.3665
  11  C11        4.7520   25.2230    6.8860   ca 1 LIG -0.0290
  12  C12        4.1030   25.8600    7.9400   ca 1 LIG -0.1500
  13  C13        3.3770   27.0260    7.7020   ca 1 LIG -0.0440
  14   N1        0.4880   28.1800    7.4980   nb 1 LIG -0.8239
  15  C14       -0.5680   28.6370    8.0860   ca 1 LIG  0.7567
  16   O1       -1.3890   27.8080    8.7520   os 1 LIG -0.4171
  17  C15       -0.8370   30.0590    7.9870   ca 1 LIG -0.2082
  18   N2       -1.8060   31.0220    8.4250   nd 1 LIG -0.5000
  19   N3       -0.3370   32.0960    7.3180   na 1 LIG -0.3830
  20  C16        0.0120   30.8440    7.3110   ca 1 LIG  0.4718
  21   N4        1.1720   30.2780    6.7090   nb 1 LIG -0.7689
  22   N5        2.5230   28.7210    6.1570   nu 1 LIG -0.7022
  23  C17        3.2880   27.5720    6.4130   ca 1 LIG  0.1046
  24  C18        3.9700   26.9410    5.3710   ca 1 LIG -0.0570
  25   H1       -1.9740   33.0850    8.1590   h5 1 LIG  0.0748
  26   H2       -0.5410   26.0550    8.0430   h1 1 LIG  0.0552
  27   H3        0.4540   26.7760    9.3100   h1 1 LIG  0.0552
  28   H4       -2.2580   26.1250   10.2960   hc 1 LIG  0.0727
  29   H5       -0.4090   24.0420    9.0630   hc 1 LIG  0.0442
  30   H6       -2.1060   24.2820    8.7360   hc 1 LIG  0.0442
  31   H7       -1.6090   22.2710   10.1760   hc 1 LIG  0.0417
  32   H8       -2.6840   23.4230   10.9160   hc 1 LIG  0.0417
  33   H9        0.2300   23.0140   11.6180   hc 1 LIG  0.0392
  34  H10       -1.1520   22.6520   12.6230   hc 1 LIG  0.0392
  35  H11       -0.0270   24.8110   13.2720   hc 1 LIG  0.0417
  36  H12       -1.6870   25.0180   12.8620   hc 1 LIG  0.0417
  37  H13       -0.4740   26.8530   11.8240   hc 1 LIG  0.0442
  38  H14        0.6710   25.7290   11.1480   hc 1 LIG  0.0442
  39  H15        5.3080   24.3190    7.0770   ha 1 LIG  0.1520
  40  H16        4.1540   25.4500    8.9410   ha 1 LIG  0.1430
  41  H17        2.8640   27.5010    8.5250   ha 1 LIG  0.1580
  42  H18        0.0880   32.8960    6.8440   hn 1 LIG  0.3187
  43  H19        2.9720   29.4760    5.6570   hn 1 LIG  0.4378
  44  H20        3.9240   27.3610    4.3800   ha 1 LIG  0.1560
  45   S1        5.4740   24.8960    4.2380   sy 1 LIG  1.5263
  46   O2        5.4560   25.7570    3.0550    o 1 LIG -0.6572
  47   O3        4.9300   23.5360    4.2050    o 1 LIG -0.6572
  48  H21        7.4550   25.6770    4.9010   hn 1 LIG  0.4478
  49   N6        7.1140   24.7270    4.6910   n8 1 LIG -1.0266
  50  H22        7.1790   24.1610    5.5330   hn 1 LIG  0.4478
@<TRIPOS>BOND
    1     1    14 ar
    2     1    21 ar
    3     1    22  1
    4     2    18  2
    5     2    19  1
    6     2    25  1
    7     3     4  1
    8     3    16  1
    9     3    26  1
   10     3    27  1
   11     4     5  1
   12     4     9  1
   13     4    28  1
   14     5     6  1
   15     5    29  1
   16     5    30  1
   17     6     7  1
   18     6    31  1
   19     6    32  1
   20     7     8  1
   21     7    33  1
   22     7    34  1
   23     8     9  1
   24     8    35  1
   25     8    36  1
   26     9    37  1
   27     9    38  1
   28    10    11 ar
   29    10    24 ar
   30    10    45  1
   31    11    12 ar
   32    11    39  1
   33    12    13 ar
   34    12    40  1
   35    13    23 ar
   36    13    41  1
   37    14    15 ar
   38    15    16  1
   39    15    17 ar
   40    17    18  1
   41    17    20 ar
   42    19    20  1
   43    19    42  1
   44    20    21 ar
   45    22    23  1
   46    22    43  1
   47    23    24 ar
   48    24    44  1
   49    45    46  2
   50    45    47  2
   51    45    49  1
   52    48    49  1
   53    49    50  1
@<TRIPOS>SUBSTRUCTURE
     1 LIG         1 TEMP              0 ****  ****    0 ROOT
