@<TRIPOS>MOLECULE
20
   49    52     1     0     0
SMALL
bcc


@<TRIPOS>ATOM
      1 C1           1.4220    29.0340     6.7680 ca         1 20        0.915900
      2 C2          -1.4500    32.1630     8.0080 cc         1 20        0.389700
      3 C3          -0.5820    26.6250     8.9780 c3         1 20        0.136400
      4 C4          -1.2500    25.7670    10.0810 c6         1 20       -0.072700
      5 C5          -1.3550    24.3310     9.5270 c6         1 20       -0.073400
      6 C6          -1.6530    23.2730    10.6030 c6         1 20       -0.075900
      7 C7          -0.7810    23.3430    11.8650 c6         1 20       -0.077400
      8 C8          -0.7120    24.7790    12.4320 c6         1 20       -0.075900
      9 C9          -0.3880    25.8600    11.3800 c6         1 20       -0.073400
     10 C10          4.1430    25.6520     7.4210 ca         1 20       -0.083300
     11 C11          4.8390    25.2160     6.2930 ca         1 20       -0.108000
     12 C12          4.7710    25.9620     5.1250 ca         1 20       -0.120000
     13 C13          4.0210    27.1340     5.1080 ca         1 20       -0.161000
     14 N1           0.4880    28.1800     7.4980 nb         1 20       -0.820000
     15 C14         -0.5680    28.6370     8.0860 ca         1 20        0.754600
     16 O1          -1.3890    27.8080     8.7520 os         1 20       -0.419100
     17 C15         -0.8370    30.0590     7.9870 ca         1 20       -0.214200
     18 N2          -1.8060    31.0220     8.4250 nd         1 20       -0.501100
     19 N3          -0.3370    32.0960     7.3180 na         1 20       -0.385000
     20 C16          0.0120    30.8440     7.3110 ca         1 20        0.473800
     21 N4           1.1720    30.2780     6.7090 nb         1 20       -0.776000
     22 N5           2.5230    28.7210     6.1570 nu         1 20       -0.704300
     23 C17          3.2730    27.5440     6.2110 ca         1 20        0.125600
     24 C18          3.3460    26.7930     7.3750 ca         1 20       -0.105000
     25 H1          -1.9730    33.0850     8.1590 h5         1 20        0.073800
     26 H2          -0.5400    26.0540     8.0430 h1         1 20        0.055200
     27 H3           0.4540    26.7750     9.3100 h1         1 20        0.055200
     28 H4          -2.2580    26.1250    10.2960 hc         1 20        0.071700
     29 H5          -0.4080    24.0430     9.0650 hc         1 20        0.043950
     30 H6          -2.1050    24.2820     8.7350 hc         1 20        0.043950
     31 H7          -1.6080    22.2710    10.1750 hc         1 20        0.041450
     32 H8          -2.6840    23.4220    10.9160 hc         1 20        0.041450
     33 H9           0.2300    23.0150    11.6170 hc         1 20        0.038700
     34 H10         -1.1510    22.6510    12.6230 hc         1 20        0.038700
     35 H11         -1.6860    25.0180    12.8630 hc         1 20        0.041450
     36 H12         -0.0260    24.8110    13.2720 hc         1 20        0.041450
     37 H13         -0.4730    26.8530    11.8240 hc         1 20        0.043950
     38 H14          0.6710    25.7270    11.1460 hc         1 20        0.043950
     39 H15          5.4670    24.3390     6.3310 ha         1 20        0.156000
     40 H16          5.3400    25.6690     4.2540 ha         1 20        0.135000
     41 H17          4.0590    27.7370     4.2330 ha         1 20        0.132000
     42 H18          0.0880    32.8960     6.8440 hn         1 20        0.317700
     43 H19          2.8920    29.4590     5.5750 hn         1 20        0.437800
     44 H20          2.8130    27.1170     8.2570 ha         1 20        0.150000
     45 C19          4.3220    24.9630     8.7290 c3         1 20        0.176700
     46 H21          4.0790    25.6570     9.5330 h1         1 20        0.033200
     47 O2           3.5440    23.8060     8.8880 oh         1 20       -0.599800
     48 H22          5.3750    24.7100     8.8470 h1         1 20        0.033200
     49 H23          3.7870    23.5620     9.8140 ho         1 20        0.403000
@<TRIPOS>BOND
     1     1    14 ar  
     2     1    21 ar  
     3     1    22 1   
     4     2    18 2   
     5     2    19 1   
     6     2    25 1   
     7     3     4 1   
     8     3    16 1   
     9     3    26 1   
    10     3    27 1   
    11     4     5 1   
    12     4     9 1   
    13     4    28 1   
    14     5     6 1   
    15     5    29 1   
    16     5    30 1   
    17     6     7 1   
    18     6    31 1   
    19     6    32 1   
    20     7     8 1   
    21     7    33 1   
    22     7    34 1   
    23     8     9 1   
    24     8    35 1   
    25     8    36 1   
    26     9    37 1   
    27     9    38 1   
    28    10    11 ar  
    29    10    24 ar  
    30    10    45 1   
    31    11    12 ar  
    32    11    39 1   
    33    12    13 ar  
    34    12    40 1   
    35    13    23 ar  
    36    13    41 1   
    37    14    15 ar  
    38    15    16 1   
    39    15    17 ar  
    40    17    18 1   
    41    17    20 ar  
    42    19    20 1   
    43    19    42 1   
    44    20    21 ar  
    45    22    23 1   
    46    22    43 1   
    47    23    24 ar  
    48    24    44 1   
    49    45    46 1   
    50    45    47 1   
    51    45    48 1   
    52    47    49 1   
@<TRIPOS>SUBSTRUCTURE
     1 20          1 TEMP              0 ****  ****    0 ROOT
