@<TRIPOS>MOLECULE
LIG
49 52 1 0 0
SMALL
resp
@<TRIPOS>ATOM
   1   C1        1.6390   -1.9600   -0.0880   ca 1 20  0.4036
   2   C2       -1.3330   -5.1070   -0.1260   cc 1 20  0.1714
   3   C3       -1.5450    0.4690    0.3010   c3 1 20  0.0208
   4   C4       -2.9290    1.0630    0.5100   c6 1 20  0.0114
   5   C5       -2.8190    2.5750    0.7560   c6 1 20 -0.0372
   6   C6       -4.1930    3.2190    0.9610   c6 1 20 -0.0188
   7   C7       -5.1340    2.9200   -0.2090   c6 1 20  0.0137
   8   C8       -5.2460    1.4140   -0.4590   c6 1 20 -0.0188
   9   C9       -3.8720    0.7720   -0.6650   c6 1 20 -0.0372
  10  C10        3.0420    2.3160   -0.2850   ca 1 20  0.0530
  11  C11        4.2200    2.5430    0.4100   ca 1 20 -0.1656
  12  C12        4.9230    1.4670    0.9250   ca 1 20 -0.1596
  13  C13        4.4540    0.1760    0.7690   ca 1 20 -0.2147
  14   N1        0.5740   -1.1610    0.0300   nb 1 20 -0.2731
  15  C14       -0.6240   -1.7000    0.0740   ca 1 20  0.2245
  16   O1       -1.6860   -0.9430    0.2060   os 1 20 -0.2568
  17  C15       -0.7720   -3.0850   -0.0160   ca 1 20  0.2153
  18   N2       -1.8540   -3.9480   -0.0100   nd 1 20 -0.5639
  19   N3        0.0420   -5.0880   -0.2100   na 1 20 -0.4481
  20  C16        0.4130   -3.7840   -0.1410   ca 1 20  0.4523
  21   N4        1.6350   -3.2800   -0.1790   nb 1 20 -0.6650
  22   N5        2.8770   -1.3940   -0.1160   nu 1 20 -0.1950
  23  C17        3.2720   -0.0570    0.0740   ca 1 20  0.0003
  24  C18        2.5800    1.0190   -0.4630   ca 1 20 -0.0509
  25   H1       -1.8760   -6.0300   -0.1580   h5 1 20  0.1626
  26   H2       -0.8850    0.7040    1.1250   h1 1 20  0.0930
  27   H3       -1.0920    0.8410   -0.6100   h1 1 20  0.0930
  28   H4       -3.3460    0.6020    1.4040   hc 1 20  0.0410
  29   H5       -2.3290    3.0430   -0.0980   hc 1 20  0.0196
  30   H6       -2.1880    2.7680    1.6210   hc 1 20  0.0196
  31   H7       -4.0820    4.2920    1.0910   hc 1 20  0.0073
  32   H8       -4.6320    2.8380    1.8820   hc 1 20  0.0073
  33   H9       -4.7560    3.4070   -1.1070   hc 1 20  0.0005
  34  H10       -6.1160    3.3440   -0.0160   hc 1 20  0.0005
  35  H11       -5.7380    0.9440    0.3910   hc 1 20  0.0073
  36  H12       -5.8760    1.2240   -1.3240   hc 1 20  0.0073
  37  H13       -3.9730   -0.2980   -0.7980   hc 1 20  0.0196
  38  H14       -3.4270    1.1640   -1.5800   hc 1 20  0.0196
  39  H15        4.5840    3.5440    0.5340   ha 1 20  0.1470
  40  H16        5.8410    1.6340    1.4600   ha 1 20  0.1509
  41  H17        4.9990   -0.6520    1.1880   ha 1 20  0.1534
  42  H18        0.6520   -5.8670   -0.3050   hn 1 20  0.3644
  43  H19        3.6060   -2.0720   -0.0980   hn 1 20  0.2580
  44  H20        1.6820    0.8390   -1.0190   ha 1 20 -0.0490
  45  C19        2.2220    3.4580   -0.8420   c3 1 20  0.2587
  46  H21        1.3700    3.6360   -0.1880   h1 1 20 -0.0015
  47   O2        3.0070    4.6140   -0.9420   oh 1 20 -0.6529
  48  H22        1.8290    3.1760   -1.8160   h1 1 20 -0.0015
  49  H23        2.4650    5.3390   -1.2160   ho 1 20  0.4128
@<TRIPOS>BOND
    1     1    14 ar
    2     1    21 ar
    3     1    22  1
    4     2    18  2
    5     2    19  1
    6     2    25  1
    7     3     4  1
    8     3    16  1
    9     3    26  1
   10     3    27  1
   11     4     5  1
   12     4     9  1
   13     4    28  1
   14     5     6  1
   15     5    29  1
   16     5    30  1
   17     6     7  1
   18     6    31  1
   19     6    32  1
   20     7     8  1
   21     7    33  1
   22     7    34  1
   23     8     9  1
   24     8    35  1
   25     8    36  1
   26     9    37  1
   27     9    38  1
   28    10    11 ar
   29    10    24 ar
   30    10    45  1
   31    11    12 ar
   32    11    39  1
   33    12    13 ar
   34    12    40  1
   35    13    23 ar
   36    13    41  1
   37    14    15 ar
   38    15    16  1
   39    15    17 ar
   40    17    18  1
   41    17    20 ar
   42    19    20  1
   43    19    42  1
   44    20    21 ar
   45    22    23  1
   46    22    43  1
   47    23    24 ar
   48    24    44  1
   49    45    46  1
   50    45    47  1
   51    45    48  1
   52    47    49  1
@<TRIPOS>SUBSTRUCTURE
     1 LIG         1 TEMP              0 ****  ****    0 ROOT
