@<TRIPOS>MOLECULE
LIG
45 48 1 0 0
SMALL
bcc
@<TRIPOS>ATOM
   1   C1        1.4220   29.0340    6.7680   ca 1 LIG  0.9158
   2   C2       -1.4500   32.1630    8.0080   cc 1 LIG  0.3906
   3   C3       -0.5820   26.6250    8.9780   c3 1 LIG  0.1363
   4   C4       -1.2500   25.7670   10.0810   c6 1 LIG -0.0717
   5   C5       -1.3550   24.3310    9.5270   c6 1 LIG -0.0739
   6   C6       -1.6530   23.2730   10.6030   c6 1 LIG -0.0759
   7   C7       -0.7810   23.3430   11.8650   c6 1 LIG -0.0784
   8   C8       -0.7120   24.7790   12.4320   c6 1 LIG -0.0759
   9   C9       -0.3880   25.8600   11.3800   c6 1 LIG -0.0739
  10  C10        4.6880   25.7840    5.5660   ca 1 LIG  0.0314
  11  C11        4.7690   25.2340    6.8430   ca 1 LIG -0.1330
  12  C12        4.1170   25.8490    7.9100   ca 1 LIG -0.1150
  13  C13        3.3800   27.0120    7.6860   ca 1 LIG -0.1060
  14   N1        0.4880   28.1800    7.4980   nb 1 LIG -0.8211
  15  C14       -0.5680   28.6370    8.0860   ca 1 LIG  0.7565
  16   O1       -1.3890   27.8080    8.7520   os 1 LIG -0.4182
  17  C15       -0.8370   30.0590    7.9870   ca 1 LIG -0.2113
  18   N2       -1.8060   31.0220    8.4250   nd 1 LIG -0.5002
  19   N3       -0.3370   32.0960    7.3180   na 1 LIG -0.3841
  20  C16        0.0120   30.8440    7.3110   ca 1 LIG  0.4727
  21   N4        1.1720   30.2780    6.7090   nb 1 LIG -0.7731
  22   N5        2.5230   28.7210    6.1570   nu 1 LIG -0.7064
  23  C17        3.2850   27.5700    6.4030   ca 1 LIG  0.1415
  24  C18        3.9660   26.9560    5.3530   ca 1 LIG -0.1631
  25   H1       -1.9740   33.0850    8.1590   h5 1 LIG  0.0748
  26   H2       -0.5410   26.0540    8.0430   h1 1 LIG  0.0557
  27   H3        0.4540   26.7760    9.3100   h1 1 LIG  0.0557
  28   H4       -2.2580   26.1250   10.2960   hc 1 LIG  0.0717
  29   H5       -0.4090   24.0420    9.0630   hc 1 LIG  0.0447
  30   H6       -2.1060   24.2820    8.7360   hc 1 LIG  0.0447
  31   H7       -1.6090   22.2710   10.1760   hc 1 LIG  0.0412
  32   H8       -2.6840   23.4220   10.9160   hc 1 LIG  0.0412
  33   H9        0.2300   23.0140   11.6180   hc 1 LIG  0.0392
  34  H10       -1.1520   22.6520   12.6230   hc 1 LIG  0.0392
  35  H11       -0.0270   24.8110   13.2720   hc 1 LIG  0.0412
  36  H12       -1.6870   25.0180   12.8620   hc 1 LIG  0.0412
  37  H13       -0.4740   26.8530   11.8240   hc 1 LIG  0.0447
  38  H14        0.6710   25.7290   11.1480   hc 1 LIG  0.0447
  39  CL1        5.4660   24.9940    4.2460   cl 1 LIG -0.0944
  40  H15        5.3500   24.3400    7.0040   ha 1 LIG  0.1489
  41  H16        4.1780   25.4280    8.9060   ha 1 LIG  0.1389
  42  H17        2.8670   27.4760    8.5150   ha 1 LIG  0.1569
  43  H18        0.0880   32.8960    6.8440   hn 1 LIG  0.3186
  44  H19        2.9700   29.4740    5.6510   hn 1 LIG  0.4397
  45  H20        3.9260   27.3760    4.3640   ha 1 LIG  0.1479
@<TRIPOS>BOND
    1     1    14 ar
    2     1    21 ar
    3     1    22  1
    4     2    18  2
    5     2    19  1
    6     2    25  1
    7     3     4  1
    8     3    16  1
    9     3    26  1
   10     3    27  1
   11     4     5  1
   12     4     9  1
   13     4    28  1
   14     5     6  1
   15     5    29  1
   16     5    30  1
   17     6     7  1
   18     6    31  1
   19     6    32  1
   20     7     8  1
   21     7    33  1
   22     7    34  1
   23     8     9  1
   24     8    35  1
   25     8    36  1
   26     9    37  1
   27     9    38  1
   28    10    11 ar
   29    10    24 ar
   30    10    39  1
   31    11    12 ar
   32    11    40  1
   33    12    13 ar
   34    12    41  1
   35    13    23 ar
   36    13    42  1
   37    14    15 ar
   38    15    16  1
   39    15    17 ar
   40    17    18  1
   41    17    20 ar
   42    19    20  1
   43    19    43  1
   44    20    21 ar
   45    22    23  1
   46    22    44  1
   47    23    24 ar
   48    24    45  1
@<TRIPOS>SUBSTRUCTURE
     1 LIG         1 TEMP              0 ****  ****    0 ROOT
