@<TRIPOS>MOLECULE
LIG
45 48 1 0 0
SMALL
resp
@<TRIPOS>ATOM
   1   C1        1.2120    1.7790    0.2040   ca 1 1h1  0.4544
   2   C2       -1.8090    4.8420   -0.2410   cc 1 1h1  0.2006
   3   C3       -1.8990   -0.7520   -0.1770   c3 1 1h1  0.0726
   4   C4       -3.2560   -1.3880   -0.4310   c6 1 1h1  0.0111
   5   C5       -3.1100   -2.9130   -0.5310   c6 1 1h1 -0.0191
   6   C6       -4.4580   -3.5980   -0.7750   c6 1 1h1 -0.0144
   7   C7       -5.4850   -3.2150    0.2930   c6 1 1h1  0.0097
   8   C8       -5.6340   -1.6950    0.3980   c6 1 1h1 -0.0144
   9   C9       -4.2850   -1.0120    0.6430   c6 1 1h1 -0.0191
  10  C10        4.7720   -1.5450   -0.0450   ca 1 1h1 -0.0269
  11  C11        4.0330   -2.6390    0.3610   ca 1 1h1 -0.0794
  12  C12        2.7270   -2.4230    0.7670   ca 1 1h1 -0.2001
  13  C13        2.1660   -1.1590    0.7760   ca 1 1h1 -0.0287
  14   N1        0.1760    0.9460    0.0860   nb 1 1h1 -0.3321
  15  C14       -1.0270    1.4500   -0.0870   ca 1 1h1  0.2766
  16   O1       -2.0640    0.6610   -0.2230   os 1 1h1 -0.2687
  17  C15       -1.2050    2.8330   -0.1310   ca 1 1h1  0.1827
  18   N2       -2.2990    3.6660   -0.2890   nd 1 1h1 -0.5640
  19   N3       -0.4430    4.8650   -0.0610   na 1 1h1 -0.4546
  20  C16       -0.0450    3.5700    0.0120   ca 1 1h1  0.4552
  21   N4        1.1810    3.0990    0.1790   nb 1 1h1 -0.6678
  22   N5        2.4640    1.2540    0.3640   nu 1 1h1 -0.2635
  23  C17        2.9200   -0.0690    0.3510   ca 1 1h1  0.0190
  24  C18        4.2350   -0.2740   -0.0610   ca 1 1h1 -0.1036
  25   H1       -2.3690    5.7510   -0.3290   h5 1 1h1  0.1535
  26   H2       -1.1780   -1.0480   -0.9270   h1 1 1h1  0.0663
  27   H3       -1.5110   -1.0310    0.7950   h1 1 1h1  0.0663
  28   H4       -3.6130   -1.0160   -1.3900   hc 1 1h1  0.0357
  29   H5       -2.6770   -3.2950    0.3940   hc 1 1h1  0.0109
  30   H6       -2.4160   -3.1700   -1.3280   hc 1 1h1  0.0109
  31   H7       -4.3240   -4.6760   -0.7990   hc 1 1h1  0.0059
  32   H8       -4.8330   -3.3090   -1.7550   hc 1 1h1  0.0059
  33   H9       -5.1670   -3.6120    1.2560   hc 1 1h1  0.0001
  34  H10       -6.4450   -3.6720    0.0700   hc 1 1h1  0.0001
  35  H11       -6.3260   -1.4400    1.1950   hc 1 1h1  0.0059
  36  H12       -6.0680   -1.3110   -0.5240   hc 1 1h1  0.0059
  37  H13       -4.4100    0.0650    0.6730   hc 1 1h1  0.0109
  38  H14       -3.9040   -1.3120    1.6200   hc 1 1h1  0.0109
  39  Cl1        6.4230   -1.7670   -0.5640   cl 1 1h1 -0.1124
  40  H15        4.4650   -3.6210    0.3620   ha 1 1h1  0.1328
  41  H16        2.1350   -3.2590    1.0960   ha 1 1h1  0.1571
  42  H17        1.1590   -1.0160    1.1040   ha 1 1h1  0.0264
  43  H18        0.1450    5.6640    0.0050   hn 1 1h1  0.3665
  44  H19        3.1680    1.9570    0.3510   hn 1 1h1  0.2805
  45  H20        4.8320    0.5530   -0.3980   ha 1 1h1  0.1343
@<TRIPOS>BOND
    1     1    14 ar
    2     1    21 ar
    3     1    22  1
    4     2    18  2
    5     2    19  1
    6     2    25  1
    7     3     4  1
    8     3    16  1
    9     3    26  1
   10     3    27  1
   11     4     5  1
   12     4     9  1
   13     4    28  1
   14     5     6  1
   15     5    29  1
   16     5    30  1
   17     6     7  1
   18     6    31  1
   19     6    32  1
   20     7     8  1
   21     7    33  1
   22     7    34  1
   23     8     9  1
   24     8    35  1
   25     8    36  1
   26     9    37  1
   27     9    38  1
   28    10    11 ar
   29    10    24 ar
   30    10    39  1
   31    11    12 ar
   32    11    40  1
   33    12    13 ar
   34    12    41  1
   35    13    23 ar
   36    13    42  1
   37    14    15 ar
   38    15    16  1
   39    15    17 ar
   40    17    18  1
   41    17    20 ar
   42    19    20  1
   43    19    43  1
   44    20    21 ar
   45    22    23  1
   46    22    44  1
   47    23    24 ar
   48    24    45  1
@<TRIPOS>SUBSTRUCTURE
     1 LIG         1 TEMP              0 ****  ****    0 ROOT
