@<TRIPOS>MOLECULE
LIG
   45    48     1     0     0
SMALL
No Charge or Current Charge


@<TRIPOS>ATOM
      1 C1           1.4220    29.0340     6.7680 ca         1 LIG       0.915000
      2 C2          -1.4500    32.1630     8.0080 cc         1 LIG       0.390800
      3 C3          -0.5820    26.6250     8.9780 c3         1 LIG       0.136400
      4 C4          -1.2500    25.7670    10.0810 c6         1 LIG      -0.071700
      5 C5          -1.3550    24.3310     9.5270 c6         1 LIG      -0.073900
      6 C6          -1.6530    23.2730    10.6030 c6         1 LIG      -0.075900
      7 C7          -0.7810    23.3430    11.8650 c6         1 LIG      -0.078400
      8 C8          -0.7120    24.7790    12.4320 c6         1 LIG      -0.075900
      9 C9          -0.3880    25.8600    11.3800 c6         1 LIG      -0.073900
     10 C10          4.6930    25.7850     5.5620 ca         1 LIG      -0.012900
     11 C11          4.7700    25.2310     6.8380 ca         1 LIG      -0.113000
     12 C12          4.1130    25.8420     7.9050 ca         1 LIG      -0.124000
     13 C13          3.3750    27.0050     7.6830 ca         1 LIG      -0.093000
     14 N1           0.4880    28.1800     7.4980 nb         1 LIG      -0.821900
     15 C14         -0.5680    28.6370     8.0860 ca         1 LIG       0.756700
     16 O1          -1.3890    27.8080     8.7520 os         1 LIG      -0.418000
     17 C15         -0.8370    30.0590     7.9870 ca         1 LIG      -0.211200
     18 N2          -1.8060    31.0220     8.4250 nd         1 LIG      -0.500000
     19 N3          -0.3370    32.0960     7.3180 na         1 LIG      -0.384000
     20 C16          0.0120    30.8440     7.3110 ca         1 LIG       0.472900
     21 N4           1.1720    30.2780     6.7090 nb         1 LIG      -0.771900
     22 N5           2.5230    28.7210     6.1570 nu         1 LIG      -0.705200
     23 C17          3.2840    27.5690     6.4020 ca         1 LIG       0.131600
     24 C18          3.9700    26.9580     5.3520 ca         1 LIG      -0.141000
     25 H1          -1.9740    33.0850     8.1590 h5         1 LIG       0.074800
     26 H2          -0.5410    26.0540     8.0430 h1         1 LIG       0.055200
     27 H3           0.4540    26.7760     9.3100 h1         1 LIG       0.055200
     28 H4          -2.2580    26.1250    10.2960 hc         1 LIG       0.071700
     29 H5          -0.4090    24.0420     9.0630 hc         1 LIG       0.044700
     30 H6          -2.1060    24.2820     8.7360 hc         1 LIG       0.044700
     31 H7          -1.6090    22.2710    10.1760 hc         1 LIG       0.041200
     32 H8          -2.6840    23.4220    10.9160 hc         1 LIG       0.041200
     33 H9           0.2300    23.0140    11.6180 hc         1 LIG       0.039200
     34 H10         -1.1520    22.6520    12.6230 hc         1 LIG       0.039200
     35 H11         -0.0260    24.8110    13.2720 hc         1 LIG       0.041200
     36 H12         -1.6870    25.0180    12.8620 hc         1 LIG       0.041200
     37 H13         -0.4740    26.8530    11.8240 hc         1 LIG       0.044700
     38 H14          0.6710    25.7290    11.1480 hc         1 LIG       0.044700
     39 Br1          5.5610    24.9260     4.1050 br         1 LIG      -0.087100
     40 H15          5.3510    24.3370     7.0000 ha         1 LIG       0.148000
     41 H16          4.1710    25.4180     8.8990 ha         1 LIG       0.140000
     42 H17          2.8600    27.4650     8.5130 ha         1 LIG       0.157000
     43 H18          0.0880    32.8960     6.8440 hn         1 LIG       0.318700
     44 H19          2.9690    29.4720     5.6480 hn         1 LIG       0.439900
     45 H20          3.9340    27.3830     4.3650 ha         1 LIG       0.147000
@<TRIPOS>BOND
     1     1    14 ar  
     2     1    21 ar  
     3     1    22 1   
     4     2    18 2   
     5     2    19 1   
     6     2    25 1   
     7     3     4 1   
     8     3    16 1   
     9     3    26 1   
    10     3    27 1   
    11     4     5 1   
    12     4     9 1   
    13     4    28 1   
    14     5     6 1   
    15     5    29 1   
    16     5    30 1   
    17     6     7 1   
    18     6    31 1   
    19     6    32 1   
    20     7     8 1   
    21     7    33 1   
    22     7    34 1   
    23     8     9 1   
    24     8    35 1   
    25     8    36 1   
    26     9    37 1   
    27     9    38 1   
    28    10    11 ar  
    29    10    24 ar  
    30    10    39 1   
    31    11    12 ar  
    32    11    40 1   
    33    12    13 ar  
    34    12    41 1   
    35    13    23 ar  
    36    13    42 1   
    37    14    15 ar  
    38    15    16 1   
    39    15    17 ar  
    40    17    18 1   
    41    17    20 ar  
    42    19    20 1   
    43    19    43 1   
    44    20    21 ar  
    45    22    23 1   
    46    22    44 1   
    47    23    24 ar  
    48    24    45 1   
@<TRIPOS>SUBSTRUCTURE
     1 LIG         1 TEMP              0 ****  ****    0 ROOT
