@<TRIPOS>MOLECULE
LIG
   49    52     1     0     0
SMALL
No Charge or Current Charge


@<TRIPOS>ATOM
      1 C1           1.4220    29.0340     6.7680 ca         1 LIG       0.917000
      2 C2          -1.4500    32.1630     8.0080 cc         1 LIG       0.389800
      3 C3          -0.5820    26.6250     8.9780 c3         1 LIG       0.137500
      4 C4          -1.2500    25.7670    10.0810 c6         1 LIG      -0.072700
      5 C5          -1.3550    24.3310     9.5270 c6         1 LIG      -0.073800
      6 C6          -1.6530    23.2730    10.6030 c6         1 LIG      -0.075800
      7 C7          -0.7810    23.3430    11.8650 c6         1 LIG      -0.078300
      8 C8          -0.7120    24.7790    12.4320 c6         1 LIG      -0.075800
      9 C9          -0.3880    25.8600    11.3800 c6         1 LIG      -0.073800
     10 C10          4.5640    25.7180     5.8740 ca         1 LIG      -0.100900
     11 C11          4.5690    25.2990     7.2080 ca         1 LIG      -0.130900
     12 C12          3.8860    26.0330     8.1730 ca         1 LIG       0.006900
     13 C13          3.2070    27.2040     7.8470 ca         1 LIG      -0.120900
     14 N1           0.4880    28.1800     7.4980 nb         1 LIG      -0.820900
     15 C14         -0.5680    28.6370     8.0860 ca         1 LIG       0.754700
     16 O1          -1.3890    27.8080     8.7520 os         1 LIG      -0.418000
     17 C15         -0.8370    30.0590     7.9870 ca         1 LIG      -0.213100
     18 N2          -1.8060    31.0220     8.4250 nd         1 LIG      -0.501000
     19 N3          -0.3370    32.0960     7.3180 na         1 LIG      -0.384900
     20 C16          0.0120    30.8440     7.3110 ca         1 LIG       0.473900
     21 N4           1.1720    30.2780     6.7090 nb         1 LIG      -0.774900
     22 N5           2.5230    28.7210     6.1570 nu         1 LIG      -0.706200
     23 C17          3.1980    27.6080     6.5180 ca         1 LIG       0.146700
     24 C18          3.8670    26.8690     5.5460 ca         1 LIG      -0.174900
     25 H1          -2.0470    33.0330     8.2390 h5         1 LIG       0.073900
     26 H2          -0.5190    26.0460     8.0560 h1         1 LIG       0.054200
     27 H3           0.4150    26.9220     9.3030 h1         1 LIG       0.054200
     28 H4          -2.2500    26.1520    10.2820 hc         1 LIG       0.071700
     29 H5          -0.4300    24.0730     9.0120 hc         1 LIG       0.044400
     30 H6          -2.1290    24.2950     8.7600 hc         1 LIG       0.044400
     31 H7          -1.5700    22.2790    10.1620 hc         1 LIG       0.041500
     32 H8          -2.7040    23.3340    10.8870 hc         1 LIG       0.041500
     33 H9           0.2260    22.9970    11.6300 hc         1 LIG       0.038700
     34 H10         -1.1850    22.6730    12.6230 hc         1 LIG       0.038700
     35 H11          0.0300    24.8180    13.2290 hc         1 LIG       0.041500
     36 H12         -1.6570    25.0210    12.9190 hc         1 LIG       0.041500
     37 H13         -0.5110    26.8460    11.8260 hc         1 LIG       0.044400
     38 H14          0.6680    25.8030    11.1170 hc         1 LIG       0.044400
     39 H15          5.1040    24.4050     7.4910 ha         1 LIG       0.144100
     40 S1           3.8690    25.4970     9.8080 ss         1 LIG      -0.168900
     41 H16          2.7060    27.7700     8.6180 ha         1 LIG       0.152100
     42 H17          0.0640    32.9350     6.9240 hn         1 LIG       0.317800
     43 H18          2.8730    29.3100     5.4140 hn         1 LIG       0.438900
     44 H19          3.8350    27.2080     4.5220 ha         1 LIG       0.134100
     45 H20          5.0960    25.1470     5.1270 ha         1 LIG       0.135100
     46 C19          2.8800    26.6380    10.8070 c3         1 LIG      -0.070000
     47 H21          2.8690    26.2890    11.8700 h1         1 LIG       0.070700
     48 H22          3.3260    27.6620    10.7550 h1         1 LIG       0.070700
     49 H23          1.8330    26.6660    10.4130 h1         1 LIG       0.070700
@<TRIPOS>BOND
     1     1    14 ar  
     2     1    21 ar  
     3     1    22 1   
     4     2    18 2   
     5     2    19 1   
     6     2    25 1   
     7     3     4 1   
     8     3    16 1   
     9     3    26 1   
    10     3    27 1   
    11     4     5 1   
    12     4     9 1   
    13     4    28 1   
    14     5     6 1   
    15     5    29 1   
    16     5    30 1   
    17     6     7 1   
    18     6    31 1   
    19     6    32 1   
    20     7     8 1   
    21     7    33 1   
    22     7    34 1   
    23     8     9 1   
    24     8    35 1   
    25     8    36 1   
    26     9    37 1   
    27     9    38 1   
    28    10    11 ar  
    29    10    24 ar  
    30    10    45 1   
    31    11    12 ar  
    32    11    39 1   
    33    12    13 ar  
    34    12    40 1   
    35    13    23 ar  
    36    13    41 1   
    37    14    15 ar  
    38    15    16 1   
    39    15    17 ar  
    40    17    18 1   
    41    17    20 ar  
    42    19    20 1   
    43    19    42 1   
    44    20    21 ar  
    45    22    23 1   
    46    22    43 1   
    47    23    24 ar  
    48    24    44 1   
    49    40    46 1   
    50    46    47 1   
    51    46    48 1   
    52    46    49 1   
@<TRIPOS>SUBSTRUCTURE
     1 LIG         1 TEMP              0 ****  ****    0 ROOT
