@<TRIPOS>MOLECULE
LIG
49 52 1 0 0
SMALL
resp
@<TRIPOS>ATOM
   1   C1       -1.0430   -2.3610    0.0550   ca 1 LIG  0.3236
   2   C2        2.5010   -4.7710   -0.5340   cc 1 LIG  0.1788
   3   C3        1.5230    0.7320   -0.1750   c3 1 LIG  0.0087
   4   C4        2.7540    1.6230   -0.2340   c6 1 LIG -0.0098
   5   C5        2.3310    3.0990   -0.2430   c6 1 LIG  0.0110
   6   C6        3.5420    4.0350   -0.2890   c6 1 LIG -0.0232
   7   C7        4.5170    3.7510    0.8560   c6 1 LIG  0.0103
   8   C8        4.9400    2.2800    0.8710   c6 1 LIG -0.0232
   9   C9        3.7280    1.3450    0.9180   c6 1 LIG  0.0110
  10  C10       -4.8120    0.2930    1.6150   ca 1 LIG -0.2279
  11  C11       -4.4400    1.4830    1.0140   ca 1 LIG -0.0402
  12  C12       -3.3570    1.4950    0.1460   ca 1 LIG  0.0845
  13  C13       -2.6460    0.3310   -0.1100   ca 1 LIG  0.0148
  14   N1       -0.1860   -1.3420   -0.0380   nb 1 LIG -0.2399
  15  C14        1.0900   -1.5970   -0.2250   ca 1 LIG  0.2498
  16   O1        1.9560   -0.6200   -0.3090   os 1 LIG -0.2577
  17  C15        1.5260   -2.9190   -0.3340   ca 1 LIG  0.2311
  18   N2        2.7580   -3.5210   -0.5300   nd 1 LIG -0.5721
  19   N3        1.1660   -5.0600   -0.3530   na 1 LIG -0.4538
  20  C16        0.5290   -3.8690   -0.2230   ca 1 LIG  0.4241
  21   N4       -0.7620   -3.6490   -0.0280   nb 1 LIG -0.6229
  22   N5       -2.3640   -2.0830    0.2620   nu 1 LIG -0.1680
  23  C17       -3.0080   -0.8600    0.5110   ca 1 LIG -0.0242
  24  C18       -4.1000   -0.8680    1.3720   ca 1 LIG -0.1963
  25   H1        3.2220   -5.5510   -0.6640   h5 1 LIG  0.1628
  26   H2        0.8360    0.9600   -0.9790   h1 1 LIG  0.0723
  27   H3        0.9940    0.8440    0.7620   h1 1 LIG  0.0723
  28   H4        3.2650    1.4080   -1.1720   hc 1 LIG  0.0357
  29   H5        1.7480    3.3110    0.6520   hc 1 LIG  0.0129
  30   H6        1.6780    3.2960   -1.0900   hc 1 LIG  0.0129
  31   H7        3.2100    5.0690   -0.2530   hc 1 LIG  0.0054
  32   H8        4.0570    3.9070   -1.2400   hc 1 LIG  0.0054
  33   H9        4.0390    3.9970    1.8030   hc 1 LIG -0.0001
  34  H10        5.3900    4.3930    0.7720   hc 1 LIG -0.0001
  35  H11        5.5890    2.0850    1.7200   hc 1 LIG  0.0054
  36  H12        5.5250    2.0640   -0.0220   hc 1 LIG  0.0054
  37  H13        4.0510    0.3110    0.8860   hc 1 LIG  0.0129
  38  H14        3.2050    1.4830    1.8650   hc 1 LIG  0.0129
  39  H15       -4.9780    2.3900    1.2170   ha 1 LIG  0.0950
  40   S1       -2.8540    3.0210   -0.6400   ss 1 LIG -0.2436
  41  H16       -1.8140    0.3510   -0.7800   ha 1 LIG -0.0214
  42  H17        0.7410   -5.9580   -0.3220   hn 1 LIG  0.3675
  43  H18       -2.9030   -2.9030    0.4220   hn 1 LIG  0.2505
  44  H19       -4.3850   -1.7840    1.8600   ha 1 LIG  0.1629
  45  H20       -5.6500    0.2690    2.2880   ha 1 LIG  0.1696
  46  C19       -3.8820    2.9890   -2.1370   c3 1 LIG -0.1592
  47  H21       -3.6540    3.8870   -2.6970   h1 1 LIG  0.0913
  48  H22       -3.6530    2.1250   -2.7450   h1 1 LIG  0.0913
  49  H23       -4.9340    2.9880   -1.8840   h1 1 LIG  0.0913
@<TRIPOS>BOND
    1     1    14 ar
    2     1    21 ar
    3     1    22  1
    4     2    18  2
    5     2    19  1
    6     2    25  1
    7     3     4  1
    8     3    16  1
    9     3    26  1
   10     3    27  1
   11     4     5  1
   12     4     9  1
   13     4    28  1
   14     5     6  1
   15     5    29  1
   16     5    30  1
   17     6     7  1
   18     6    31  1
   19     6    32  1
   20     7     8  1
   21     7    33  1
   22     7    34  1
   23     8     9  1
   24     8    35  1
   25     8    36  1
   26     9    37  1
   27     9    38  1
   28    10    11 ar
   29    10    24 ar
   30    10    45  1
   31    11    12 ar
   32    11    39  1
   33    12    13 ar
   34    12    40  1
   35    13    23 ar
   36    13    41  1
   37    14    15 ar
   38    15    16  1
   39    15    17 ar
   40    17    18  1
   41    17    20 ar
   42    19    20  1
   43    19    42  1
   44    20    21 ar
   45    22    23  1
   46    22    43  1
   47    23    24 ar
   48    24    44  1
   49    40    46  1
   50    46    47  1
   51    46    48  1
   52    46    49  1
@<TRIPOS>SUBSTRUCTURE
     1 LIG         1 TEMP              0 ****  ****    0 ROOT
