@<TRIPOS>MOLECULE
LIG
   50    53     1     0     0
SMALL
No Charge or Current Charge


@<TRIPOS>ATOM
      1 C1           0.1410    -2.5000     0.0560 ca         1 31        0.364800
      2 C2           4.1970    -3.9890    -0.1690 cc         1 31        0.175500
      3 C3           1.9010     1.1110    -0.2850 c3         1 31        0.027300
      4 C4           2.8820     2.2660    -0.4100 c6         1 31        0.018300
      5 C5           2.1170     3.5890    -0.5640 c6         1 31       -0.019500
      6 C6           3.0680     4.7840    -0.6790 c6         1 31       -0.019600
      7 C7           4.0390     4.8460     0.5020 c6         1 31        0.012600
      8 C8           4.8030     3.5290     0.6600 c6         1 31       -0.019600
      9 C9           3.8520     2.3350     0.7770 c6         1 31       -0.019500
     10 C10         -4.6060    -1.2280     0.3910 ca         1 31       -0.052800
     11 C11         -4.4030     0.1390     0.2620 ca         1 31        0.021400
     12 C12         -3.1170     0.6260     0.1240 ca         1 31       -0.052800
     13 C13         -2.0310    -0.2330     0.0870 ca         1 31       -0.229300
     14 N1           0.7270    -1.3080    -0.0630 nb         1 31       -0.303700
     15 C14          2.0390    -1.2520    -0.1680 ca         1 31        0.271300
     16 O1           2.6480    -0.1000    -0.2860 os         1 31       -0.269400
     17 C15          2.7900    -2.4280    -0.1560 ca         1 31        0.205400
     18 N2           4.1410    -2.7160    -0.2430 nd         1 31       -0.563500
     19 N3           2.9640    -4.5890    -0.0370 na         1 31       -0.457300
     20 C16          2.0490    -3.5870    -0.0270 ca         1 31        0.472500
     21 N4           0.7340    -3.6800     0.0820 nb         1 31       -0.660700
     22 N5          -1.2210    -2.5700     0.1670 nu         1 31       -0.186800
     23 C17         -2.2290    -1.6080     0.1940 ca         1 31        0.076700
     24 C18         -3.5330    -2.0900     0.3480 ca         1 31       -0.229300
     25 H1           5.0940    -4.5720    -0.2020 h5         1 31        0.163000
     26 H2           1.2070     1.0960    -1.1160 h1         1 31        0.069400
     27 H3           1.3310     1.1760     0.6340 h1         1 31        0.069400
     28 H4           3.4620     2.1000    -1.3160 hc         1 31        0.037500
     29 H5           1.4670     3.7320     0.2990 hc         1 31        0.016900
     30 H6           1.4690     3.5470    -1.4370 hc         1 31        0.016900
     31 H7           2.4950     5.7050    -0.7450 hc         1 31        0.006000
     32 H8           3.6330     4.7020    -1.6060 hc         1 31        0.006000
     33 H9           3.4820     5.0500     1.4150 hc         1 31       -0.000300
     34 H10          4.7340     5.6700     0.3700 hc         1 31       -0.000300
     35 H11          5.4490     3.5720     1.5330 hc         1 31        0.006000
     36 H12          5.4550     3.3850    -0.2010 hc         1 31        0.006000
     37 H13          4.4150     1.4120     0.8460 hc         1 31        0.016900
     38 H14          3.2770     2.4250     1.6990 hc         1 31        0.016900
     39 H15         -5.5970    -1.6240     0.5310 ha         1 31        0.135800
     40 H16         -2.9670     1.6870     0.0600 ha         1 31        0.135800
     41 H17         -1.0440     0.1570    -0.0190 ha         1 31        0.128800
     42 H18          2.7700    -5.5610     0.0400 hn         1 31        0.367000
     43 H19         -1.5290    -3.5120     0.2550 hn         1 31        0.266200
     44 H20         -3.7010    -3.1490     0.4470 ha         1 31        0.128800
     45 S1          -5.7800     1.2740     0.3320 sx         1 31        0.225700
     46 O2          -5.2160     2.6400     0.4980 o          1 31       -0.477000
     47 H21         -7.1370     1.8450    -1.5150 h1         1 31        0.118900
     48 H22         -5.4820     1.4790    -2.0250 h1         1 31        0.118900
     49 C19         -6.3010     1.1700    -1.3870 c3         1 31       -0.260300
     50 H23         -6.6050     0.1580    -1.6230 h1         1 31        0.118900
@<TRIPOS>BOND
     1     1    14 ar  
     2     1    21 ar  
     3     1    22 1   
     4     2    18 2   
     5     2    19 1   
     6     2    25 1   
     7     3     4 1   
     8     3    16 1   
     9     3    26 1   
    10     3    27 1   
    11     4     5 1   
    12     4     9 1   
    13     4    28 1   
    14     5     6 1   
    15     5    29 1   
    16     5    30 1   
    17     6     7 1   
    18     6    31 1   
    19     6    32 1   
    20     7     8 1   
    21     7    33 1   
    22     7    34 1   
    23     8     9 1   
    24     8    35 1   
    25     8    36 1   
    26     9    37 1   
    27     9    38 1   
    28    10    11 ar  
    29    10    24 ar  
    30    10    39 1   
    31    11    12 ar  
    32    11    45 1   
    33    12    13 ar  
    34    12    40 1   
    35    13    23 ar  
    36    13    41 1   
    37    14    15 ar  
    38    15    16 1   
    39    15    17 ar  
    40    17    18 1   
    41    17    20 ar  
    42    19    20 1   
    43    19    42 1   
    44    20    21 ar  
    45    22    23 1   
    46    22    43 1   
    47    23    24 ar  
    48    24    44 1   
    49    45    46 2   
    50    45    49 1   
    51    47    49 1   
    52    48    49 1   
    53    49    50 1   
@<TRIPOS>SUBSTRUCTURE
     1 31          1 TEMP              0 ****  ****    0 ROOT
