@<TRIPOS>MOLECULE
LIG
   53    56     1     0     0
SMALL
No Charge or Current Charge


@<TRIPOS>ATOM
      1 C1           1.4220    29.0340     6.7680 ca         1 LIG       0.928000
      2 C2          -1.4500    32.1630     8.0080 cc         1 LIG       0.393800
      3 C3          -0.5820    26.6250     8.9780 c3         1 LIG       0.136500
      4 C4          -1.2500    25.7670    10.0810 c6         1 LIG      -0.071700
      5 C5          -1.3550    24.3310     9.5270 c6         1 LIG      -0.074400
      6 C6          -1.6530    23.2730    10.6030 c6         1 LIG      -0.075800
      7 C7          -0.7810    23.3430    11.8650 c6         1 LIG      -0.078300
      8 C8          -0.7120    24.7790    12.4320 c6         1 LIG      -0.075900
      9 C9          -0.3880    25.8600    11.3800 c6         1 LIG      -0.074400
     10 C10          4.5700    25.6680     5.7560 ca         1 LIG       0.003000
     11 C11          4.5610    25.1640     7.0610 ca         1 LIG      -0.411400
     12 C12          3.9810    25.9020     8.0910 ca         1 LIG       0.003000
     13 C13          3.3440    27.1020     7.7920 ca         1 LIG      -0.182400
     14 N1           0.4880    28.1800     7.4980 nb         1 LIG      -0.825900
     15 C14         -0.5680    28.6370     8.0860 ca         1 LIG       0.758700
     16 O1          -1.3890    27.8080     8.7520 os         1 LIG      -0.416000
     17 C15         -0.8370    30.0590     7.9870 ca         1 LIG      -0.209100
     18 N2          -1.8060    31.0220     8.4250 nd         1 LIG      -0.499000
     19 N3          -0.3370    32.0960     7.3180 na         1 LIG      -0.381900
     20 C16          0.0120    30.8440     7.3110 ca         1 LIG       0.472900
     21 N4           1.1720    30.2780     6.7090 nb         1 LIG      -0.769900
     22 N5           2.5230    28.7210     6.1570 nu         1 LIG      -0.730200
     23 C17          3.2730    27.5770     6.4760 ca         1 LIG       0.224700
     24 C18          3.9310    26.8750     5.4700 ca         1 LIG      -0.182400
     25 H1          -1.9740    33.0850     8.1590 h5         1 LIG       0.075800
     26 H2          -0.5410    26.0540     8.0430 h1         1 LIG       0.054700
     27 H3           0.4540    26.7750     9.3100 h1         1 LIG       0.054700
     28 H4          -2.2580    26.1250    10.2960 hc         1 LIG       0.071700
     29 H5          -0.4090    24.0420     9.0640 hc         1 LIG       0.044200
     30 H6          -2.1060    24.2820     8.7360 hc         1 LIG       0.044200
     31 H7          -1.6090    22.2710    10.1760 hc         1 LIG       0.041700
     32 H8          -2.6840    23.4220    10.9160 hc         1 LIG       0.041700
     33 H9           0.2300    23.0140    11.6180 hc         1 LIG       0.040200
     34 H10         -1.1510    22.6520    12.6230 hc         1 LIG       0.040200
     35 H11         -0.0260    24.8110    13.2720 hc         1 LIG       0.041700
     36 H12         -1.6870    25.0180    12.8620 hc         1 LIG       0.041700
     37 H13         -0.4740    26.8530    11.8240 hc         1 LIG       0.044200
     38 H14          0.6710    25.7280    11.1480 hc         1 LIG       0.044200
     39 H15          5.0450    25.1160     4.9570 ha         1 LIG       0.153100
     40 H16          3.9900    25.5360     9.1100 ha         1 LIG       0.153100
     41 H17          2.8520    27.6430     8.5840 ha         1 LIG       0.151100
     42 H18          0.0880    32.8960     6.8440 hn         1 LIG       0.319800
     43 H19          3.0020    29.4790     5.6910 hn         1 LIG       0.455900
     44 H20          3.9160    27.2470     4.4570 ha         1 LIG       0.151100
     45 S1           5.2950    23.5700     7.4170 sy         1 LIG       1.519300
     46 O2           6.6050    23.8290     8.0130 o          1 LIG      -0.656700
     47 O3           5.1850    22.7580     6.2000 o          1 LIG      -0.656700
     48 H21          4.5230    23.1880     9.6010 hn         1 LIG       0.446900
     49 N6           4.3250    22.8050     8.6520 n7         1 LIG      -0.919000
     50 C19          2.8980    22.5290     8.3870 c3         1 LIG       0.212200
     51 H22          2.5140    21.8350     9.1360 h1         1 LIG       0.042400
     52 H23          2.3280    23.4530     8.4760 h1         1 LIG       0.042400
     53 H24          2.7650    22.1010     7.3920 h1         1 LIG       0.042400
@<TRIPOS>BOND
     1     1    14 ar  
     2     1    21 ar  
     3     1    22 1   
     4     2    18 2   
     5     2    19 1   
     6     2    25 1   
     7     3     4 1   
     8     3    16 1   
     9     3    26 1   
    10     3    27 1   
    11     4     5 1   
    12     4     9 1   
    13     4    28 1   
    14     5     6 1   
    15     5    29 1   
    16     5    30 1   
    17     6     7 1   
    18     6    31 1   
    19     6    32 1   
    20     7     8 1   
    21     7    33 1   
    22     7    34 1   
    23     8     9 1   
    24     8    35 1   
    25     8    36 1   
    26     9    37 1   
    27     9    38 1   
    28    10    11 ar  
    29    10    24 ar  
    30    10    39 1   
    31    11    12 ar  
    32    11    45 1   
    33    12    13 ar  
    34    12    40 1   
    35    13    23 ar  
    36    13    41 1   
    37    14    15 ar  
    38    15    16 1   
    39    15    17 ar  
    40    17    18 1   
    41    17    20 ar  
    42    19    20 1   
    43    19    42 1   
    44    20    21 ar  
    45    22    23 1   
    46    22    43 1   
    47    23    24 ar  
    48    24    44 1   
    49    45    46 2   
    50    45    47 2   
    51    45    49 1   
    52    48    49 1   
    53    49    50 1   
    54    50    51 1   
    55    50    52 1   
    56    50    53 1   
@<TRIPOS>SUBSTRUCTURE
     1 LIG         1 TEMP              0 ****  ****    0 ROOT
