@<TRIPOS>MOLECULE
LIG
49 52 1 0 0
SMALL
bcc
@<TRIPOS>ATOM
   1   C1        1.4220   29.0340    6.7680   ca 1 LIG  0.9128
   2   C2       -1.4500   32.1630    8.0080   cc 1 LIG  0.3886
   3   C3       -0.5820   26.6250    8.9780   c3 1 LIG  0.1363
   4   C4       -1.2500   25.7670   10.0810   c6 1 LIG -0.0717
   5   C5       -1.3550   24.3310    9.5270   c6 1 LIG -0.0745
   6   C6       -1.6530   23.2730   10.6030   c6 1 LIG -0.0755
   7   C7       -0.7810   23.3430   11.8650   c6 1 LIG -0.0785
   8   C8       -0.7120   24.7790   12.4320   c6 1 LIG -0.0755
   9   C9       -0.3880   25.8600   11.3800   c6 1 LIG -0.0744
  10  C10        4.0400   25.6760    7.6960   ca 1 LIG -0.1721
  11  C11        4.7870   25.1860    6.6260   ca 1 LIG  0.1190
  12  C12        4.7790   25.8870    5.4140   ca 1 LIG -0.1721
  13  C13        4.0450   27.0640    5.2860   ca 1 LIG -0.0981
  14   N1        0.4880   28.1800    7.4980   nb 1 LIG -0.8191
  15  C14       -0.5680   28.6370    8.0860   ca 1 LIG  0.7555
  16   O1       -1.3890   27.8080    8.7520   os 1 LIG -0.4192
  17  C15       -0.8370   30.0590    7.9870   ca 1 LIG -0.2133
  18   N2       -1.8060   31.0220    8.4250   nd 1 LIG -0.5012
  19   N3       -0.3370   32.0960    7.3180   na 1 LIG -0.3851
  20  C16        0.0120   30.8440    7.3110   ca 1 LIG  0.4737
  21   N4        1.1720   30.2780    6.7090   nb 1 LIG -0.7771
  22   N5        2.5230   28.7210    6.1570   nu 1 LIG -0.6964
  23  C17        3.2790   27.5470    6.3420   ca 1 LIG  0.0875
  24  C18        3.2970   26.8500    7.5580   ca 1 LIG -0.0981
  25   H1       -1.9730   33.0850    8.1590   h5 1 LIG  0.0738
  26   H2       -0.5400   26.0540    8.0430   h1 1 LIG  0.0562
  27   H3        0.4530   26.7760    9.3120   h1 1 LIG  0.0562
  28   H4       -2.2580   26.1250   10.2960   hc 1 LIG  0.0707
  29   H5       -0.4090   24.0420    9.0630   hc 1 LIG  0.0450
  30   H6       -2.1060   24.2820    8.7360   hc 1 LIG  0.0450
  31   H7       -1.6090   22.2710   10.1760   hc 1 LIG  0.0412
  32   H8       -2.6840   23.4220   10.9160   hc 1 LIG  0.0412
  33   H9        0.2300   23.0140   11.6180   hc 1 LIG  0.0387
  34  H10       -1.1520   22.6520   12.6230   hc 1 LIG  0.0387
  35  H11       -0.0270   24.8110   13.2730   hc 1 LIG  0.0412
  36  H12       -1.6870   25.0180   12.8620   hc 1 LIG  0.0412
  37  H13       -0.4740   26.8530   11.8240   hc 1 LIG  0.0450
  38  H14        0.6710   25.7290   11.1470   hc 1 LIG  0.0450
  39  H15        4.0430   25.1510    8.6410   ha 1 LIG  0.1449
  40   O2        5.5050   24.0210    6.8330   os 1 LIG -0.3260
  41  H16        5.3510   25.5500    4.5640   ha 1 LIG  0.1449
  42  H17        4.0800   27.6000    4.3560   ha 1 LIG  0.1439
  43  H18        0.0890   32.8950    6.8440   hn 1 LIG  0.3176
  44  H19        2.9250   29.4490    5.5830   hn 1 LIG  0.4337
  45  H20        2.7320   27.2130    8.4030   ha 1 LIG  0.1439
  46  C19        6.6080   23.7570    5.9630   c3 1 LIG  0.1136
  47  H21        7.1780   22.9080    6.3400   h1 1 LIG  0.0444
  48  H22        6.2760   23.5020    4.9560   h1 1 LIG  0.0444
  49  H23        7.2940   24.6040    5.9070   h1 1 LIG  0.0444
@<TRIPOS>BOND
    1     1    14 ar
    2     1    21 ar
    3     1    22  1
    4     2    18  2
    5     2    19  1
    6     2    25  1
    7     3     4  1
    8     3    16  1
    9     3    26  1
   10     3    27  1
   11     4     5  1
   12     4     9  1
   13     4    28  1
   14     5     6  1
   15     5    29  1
   16     5    30  1
   17     6     7  1
   18     6    31  1
   19     6    32  1
   20     7     8  1
   21     7    33  1
   22     7    34  1
   23     8     9  1
   24     8    35  1
   25     8    36  1
   26     9    37  1
   27     9    38  1
   28    10    11 ar
   29    10    24 ar
   30    10    39  1
   31    11    12 ar
   32    11    40  1
   33    12    13 ar
   34    12    41  1
   35    13    23 ar
   36    13    42  1
   37    14    15 ar
   38    15    16  1
   39    15    17 ar
   40    17    18  1
   41    17    20 ar
   42    19    20  1
   43    19    43  1
   44    20    21 ar
   45    22    23  1
   46    22    44  1
   47    23    24 ar
   48    24    45  1
   49    40    46  1
   50    46    47  1
   51    46    48  1
   52    46    49  1
@<TRIPOS>SUBSTRUCTURE
     1 LIG         1 TEMP              0 ****  ****    0 ROOT
