@<TRIPOS>MOLECULE
1h1
   50    53     1     0     0
SMALL
No Charge or Current Charge


@<TRIPOS>ATOM
      1 C1           1.4220    29.0340     6.7680 ca         1 1h1       0.928000
      2 C2          -1.4500    32.1630     8.0080 cc         1 1h1       0.393800
      3 C3          -0.5820    26.6250     8.9780 c3         1 1h1       0.136500
      4 C4          -1.2500    25.7670    10.0810 c6         1 1h1      -0.071700
      5 C5          -1.3550    24.3310     9.5270 c6         1 1h1      -0.074400
      6 C6          -1.6530    23.2730    10.6030 c6         1 1h1      -0.075900
      7 C7          -0.7810    23.3430    11.8650 c6         1 1h1      -0.078300
      8 C8          -0.7120    24.7790    12.4320 c6         1 1h1      -0.075800
      9 C9          -0.3880    25.8600    11.3800 c6         1 1h1      -0.074400
     10 C10          4.5830    25.6710     5.7900 ca         1 1h1       0.002500
     11 C11          4.5700    25.1770     7.1000 ca         1 1h1      -0.414400
     12 C12          3.9800    25.9200     8.1200 ca         1 1h1       0.002500
     13 C13          3.3410    27.1160     7.8080 ca         1 1h1      -0.182900
     14 N1           0.4880    28.1800     7.4980 nb         1 1h1      -0.825900
     15 C14         -0.5680    28.6370     8.0860 ca         1 1h1       0.758700
     16 O1          -1.3890    27.8080     8.7520 os         1 1h1      -0.416000
     17 C15         -0.8370    30.0590     7.9870 ca         1 1h1      -0.209100
     18 N2          -1.8060    31.0220     8.4250 nd         1 1h1      -0.499000
     19 N3          -0.3370    32.0960     7.3180 na         1 1h1      -0.381900
     20 C16          0.0120    30.8440     7.3110 ca         1 1h1       0.472900
     21 N4           1.1720    30.2780     6.7090 nb         1 1h1      -0.769900
     22 N5           2.5230    28.7210     6.1570 nu         1 1h1      -0.730200
     23 C17          3.2750    27.5810     6.4880 ca         1 1h1       0.224700
     24 C18          3.9400    26.8740     5.4900 ca         1 1h1      -0.182900
     25 H1          -1.9740    33.0850     8.1590 h5         1 1h1       0.075800
     26 H2          -0.5410    26.0540     8.0430 h1         1 1h1       0.054700
     27 H3           0.4540    26.7760     9.3100 h1         1 1h1       0.054700
     28 H4          -2.2580    26.1250    10.2960 hc         1 1h1       0.071700
     29 H5          -0.4090    24.0420     9.0640 hc         1 1h1       0.044200
     30 H6          -2.1060    24.2820     8.7360 hc         1 1h1       0.044200
     31 H7          -1.6090    22.2710    10.1760 hc         1 1h1       0.041700
     32 H8          -2.6840    23.4220    10.9160 hc         1 1h1       0.041700
     33 H9           0.2300    23.0140    11.6180 hc         1 1h1       0.040200
     34 H10         -1.1520    22.6520    12.6230 hc         1 1h1       0.040200
     35 H11         -0.0260    24.8110    13.2720 hc         1 1h1       0.041700
     36 H12         -1.6870    25.0180    12.8620 hc         1 1h1       0.041700
     37 H13         -0.4740    26.8530    11.8240 hc         1 1h1       0.044200
     38 H14          0.6710    25.7290    11.1480 hc         1 1h1       0.044200
     39 H15          5.0650    25.1160     4.9960 ha         1 1h1       0.154100
     40 H16          3.9850    25.5640     9.1420 ha         1 1h1       0.154100
     41 H17          2.8430    27.6600     8.5930 ha         1 1h1       0.151100
     42 H18          0.0880    32.8960     6.8440 hn         1 1h1       0.319800
     43 H19          3.0040    29.4800     5.6950 hn         1 1h1       0.455900
     44 H20          3.9280    27.2370     4.4750 ha         1 1h1       0.151100
     45 S1           5.3090    23.5920     7.4680 sy         1 1h1       1.532300
     46 O2           6.5990    23.8330     8.1080 o          1 1h1      -0.660700
     47 O3           5.2150    22.7710     6.2580 o          1 1h1      -0.660700
     48 H21          4.4940    23.2520     9.5850 hn         1 1h1       0.445900
     49 N6           4.3220    22.8370     8.6440 n8         1 1h1      -1.026600
     50 H22          3.3400    22.9180     8.3890 hn         1 1h1       0.445900
@<TRIPOS>BOND
     1     1    14 ar  
     2     1    21 ar  
     3     1    22 1   
     4     2    18 2   
     5     2    19 1   
     6     2    25 1   
     7     3     4 1   
     8     3    16 1   
     9     3    26 1   
    10     3    27 1   
    11     4     5 1   
    12     4     9 1   
    13     4    28 1   
    14     5     6 1   
    15     5    29 1   
    16     5    30 1   
    17     6     7 1   
    18     6    31 1   
    19     6    32 1   
    20     7     8 1   
    21     7    33 1   
    22     7    34 1   
    23     8     9 1   
    24     8    35 1   
    25     8    36 1   
    26     9    37 1   
    27     9    38 1   
    28    10    11 ar  
    29    10    24 ar  
    30    10    39 1   
    31    11    12 ar  
    32    11    45 1   
    33    12    13 ar  
    34    12    40 1   
    35    13    23 ar  
    36    13    41 1   
    37    14    15 ar  
    38    15    16 1   
    39    15    17 ar  
    40    17    18 1   
    41    17    20 ar  
    42    19    20 1   
    43    19    42 1   
    44    20    21 ar  
    45    22    23 1   
    46    22    43 1   
    47    23    24 ar  
    48    24    44 1   
    49    45    46 2   
    50    45    47 2   
    51    45    49 1   
    52    48    49 1   
    53    49    50 1   
@<TRIPOS>SUBSTRUCTURE
     1 1h1         1 TEMP              0 ****  ****    0 ROOT
