@<TRIPOS>MOLECULE
1oi
   46    49     1     0     0
SMALL
bcc


@<TRIPOS>ATOM
      1 C1           1.4220    29.0340     6.7680 ca         1 1oi       0.911900
      2 C2          -1.4500    32.1630     8.0080 cc         1 1oi       0.388700
      3 C3          -0.5820    26.6250     8.9780 c3         1 1oi       0.136400
      4 C4          -1.2500    25.7670    10.0810 c6         1 1oi      -0.071700
      5 C5          -1.3550    24.3310     9.5270 c6         1 1oi      -0.073900
      6 C6          -1.6530    23.2730    10.6030 c6         1 1oi      -0.075400
      7 C7          -0.7810    23.3430    11.8650 c6         1 1oi      -0.078400
      8 C8          -0.7120    24.7790    12.4320 c6         1 1oi      -0.075400
      9 C9          -0.3880    25.8600    11.3800 c6         1 1oi      -0.073900
     10 C10          4.7310    25.8460     5.4040 ca         1 1oi      -0.177500
     11 C11          4.6960    25.1440     6.6040 ca         1 1oi       0.119100
     12 C12          3.9920    25.6480     7.6920 ca         1 1oi      -0.177500
     13 C13          3.2860    26.8460     7.5610 ca         1 1oi      -0.095000
     14 N1           0.4880    28.1800     7.4980 nb         1 1oi      -0.819000
     15 C14         -0.5680    28.6370     8.0860 ca         1 1oi       0.755600
     16 O1          -1.3890    27.8080     8.7520 os         1 1oi      -0.419100
     17 C15         -0.8370    30.0590     7.9870 ca         1 1oi      -0.213200
     18 N2          -1.8060    31.0220     8.4250 nd         1 1oi      -0.500100
     19 N3          -0.3370    32.0960     7.3180 na         1 1oi      -0.385000
     20 C16          0.0120    30.8440     7.3110 ca         1 1oi       0.472800
     21 N4           1.1720    30.2780     6.7090 nb         1 1oi      -0.776000
     22 N5           2.5230    28.7210     6.1570 nu         1 1oi      -0.696300
     23 C17          3.2740    27.5430     6.3430 ca         1 1oi       0.087600
     24 C18          4.0340    27.0470     5.2840 ca         1 1oi      -0.095000
     25 H1          -1.9730    33.0850     8.1590 h5         1 1oi       0.073800
     26 H2          -0.5400    26.0540     8.0430 h1         1 1oi       0.055700
     27 H3           0.4530    26.7760     9.3120 h1         1 1oi       0.055700
     28 H4          -2.2580    26.1250    10.2960 hc         1 1oi       0.070700
     29 H5          -0.4090    24.0420     9.0630 hc         1 1oi       0.044950
     30 H6          -2.1060    24.2820     8.7360 hc         1 1oi       0.044950
     31 H7          -1.6090    22.2710    10.1760 hc         1 1oi       0.041200
     32 H8          -2.6840    23.4220    10.9160 hc         1 1oi       0.041200
     33 H9           0.2300    23.0140    11.6180 hc         1 1oi       0.038700
     34 H10         -1.1520    22.6520    12.6230 hc         1 1oi       0.038700
     35 H11         -0.0270    24.8110    13.2720 hc         1 1oi       0.041200
     36 H12         -1.6870    25.0180    12.8620 hc         1 1oi       0.041200
     37 H13         -0.4740    26.8530    11.8240 hc         1 1oi       0.044950
     38 H14          0.6710    25.7290    11.1470 hc         1 1oi       0.044950
     39 H15          5.2950    25.4770     4.5610 ha         1 1oi       0.144000
     40 O2           5.3610    23.9510     6.7030 oh         1 1oi      -0.496100
     41 H16          3.9830    25.1110     8.6310 ha         1 1oi       0.144000
     42 H17          2.7340    27.2220     8.4090 ha         1 1oi       0.145000
     43 H18          0.0890    32.8950     6.8440 hn         1 1oi       0.317700
     44 H19          2.9270    29.4480     5.5830 hn         1 1oi       0.433800
     45 H20          4.0800    27.5870     4.3560 ha         1 1oi       0.145000
     46 H21          5.9340    23.8460     5.9320 ho         1 1oi       0.419000
@<TRIPOS>BOND
     1     1    14 ar  
     2     1    21 ar  
     3     1    22 1   
     4     2    18 2   
     5     2    19 1   
     6     2    25 1   
     7     3     4 1   
     8     3    16 1   
     9     3    26 1   
    10     3    27 1   
    11     4     5 1   
    12     4     9 1   
    13     4    28 1   
    14     5     6 1   
    15     5    29 1   
    16     5    30 1   
    17     6     7 1   
    18     6    31 1   
    19     6    32 1   
    20     7     8 1   
    21     7    33 1   
    22     7    34 1   
    23     8     9 1   
    24     8    35 1   
    25     8    36 1   
    26     9    37 1   
    27     9    38 1   
    28    10    11 ar  
    29    10    24 ar  
    30    10    39 1   
    31    11    12 ar  
    32    11    40 1   
    33    12    13 ar  
    34    12    41 1   
    35    13    23 ar  
    36    13    42 1   
    37    14    15 ar  
    38    15    16 1   
    39    15    17 ar  
    40    17    18 1   
    41    17    20 ar  
    42    19    20 1   
    43    19    43 1   
    44    20    21 ar  
    45    22    23 1   
    46    22    44 1   
    47    23    24 ar  
    48    24    45 1   
    49    40    46 1   
@<TRIPOS>SUBSTRUCTURE
     1 1oi         1 TEMP              0 ****  ****    0 ROOT
