@<TRIPOS>MOLECULE
LIG
   49    52     1     0     0
SMALL
No Charge or Current Charge


@<TRIPOS>ATOM
      1 C1          -0.6910    -2.4110     0.0840 ca         1 26        0.428700
      2 C2           3.1920    -4.3100    -0.1270 cc         1 26        0.195400
      3 C3           1.4410     0.9860     0.3640 c3         1 26        0.002800
      4 C4           2.5330     2.0430     0.3970 c6         1 26        0.029100
      5 C5           3.3670     2.0570    -0.8910 c6         1 26       -0.012700
      6 C6           4.4330     3.1550    -0.8630 c6         1 26       -0.018900
      7 C7           3.8180     4.5310    -0.5970 c6         1 26        0.014900
      8 C8           2.9830     4.5260     0.6860 c6         1 26       -0.018900
      9 C9           1.9180     3.4260     0.6590 c6         1 26       -0.012700
     10 C10         -3.4700     0.9760     1.1130 ca         1 26       -0.175800
     11 C11         -4.4340     1.1680     0.1240 ca         1 26        0.248100
     12 C12         -4.5840     0.2170    -0.8680 ca         1 26       -0.175800
     13 C13         -3.7630    -0.9080    -0.8730 ca         1 26       -0.197800
     14 N1           0.0280    -1.2890     0.1900 nb         1 26       -0.349000
     15 C14          1.3390    -1.3700     0.1690 ca         1 26        0.319300
     16 O1           2.0700    -0.2860     0.2620 os         1 26       -0.261300
     17 C15          1.9600    -2.6150     0.0470 ca         1 26        0.156700
     18 N2           3.2770    -3.0430    -0.0060 nd         1 26       -0.562600
     19 N3           1.8950    -4.7750    -0.1630 na         1 26       -0.469800
     20 C16          1.0920    -3.6860    -0.0500 ca         1 26        0.472700
     21 N4          -0.2310    -3.6440    -0.0390 nb         1 26       -0.670000
     22 N5          -2.0460    -2.2960     0.1090 nu         1 26       -0.246800
     23 C17         -2.8120    -1.1060     0.1060 ca         1 26        0.053100
     24 C18         -2.6800    -0.1500     1.1120 ca         1 26       -0.197800
     25 H1           4.0220    -4.9820    -0.1990 h5         1 26        0.155300
     26 H2           0.7780     1.1250    -0.4790 h1         1 26        0.067100
     27 H3           0.8440     1.0110     1.2660 h1         1 26        0.067100
     28 H4           3.1940     1.8010     1.2280 hc         1 26        0.036100
     29 H5           2.7030     2.2230    -1.7400 hc         1 26        0.012900
     30 H6           3.8300     1.0880    -1.0390 hc         1 26        0.012900
     31 H7           4.9790     3.1640    -1.8030 hc         1 26        0.004300
     32 H8           5.1610     2.9300    -0.0850 hc         1 26        0.004300
     33 H9           3.1840     4.8100    -1.4370 hc         1 26       -0.001000
     34 H10          4.5980     5.2860    -0.5320 hc         1 26       -0.001000
     35 H11          2.5110     5.4930     0.8320 hc         1 26        0.004300
     36 H12          3.6390     4.3680     1.5410 hc         1 26        0.004300
     37 H13          1.3710     3.4190     1.5990 hc         1 26        0.012900
     38 H14          1.1910     3.6500    -0.1210 hc         1 26        0.012900
     39 H15         -3.3700     1.7190     1.8820 ha         1 26        0.134100
     40 O2          -5.1630     2.3000     0.2240 os         1 26       -0.335800
     41 H16         -5.3150     0.3290    -1.6450 ha         1 26        0.134100
     42 H17         -3.8730    -1.6330    -1.6600 ha         1 26        0.141900
     43 H18          1.5930    -5.7180    -0.2500 hn         1 26        0.368800
     44 H19         -2.5230    -3.1520    -0.0630 hn         1 26        0.270500
     45 H20         -1.9520    -0.2960     1.8850 ha         1 26        0.141900
     46 C19         -6.1500     2.5710    -0.7270 c3         1 26        0.003500
     47 H21         -6.5910     3.5160    -0.4450 h1         1 26        0.065900
     48 H22         -5.7280     2.6590    -1.7230 h1         1 26        0.065900
     49 H23         -6.9200     1.8070    -0.7310 h1         1 26        0.065900
@<TRIPOS>BOND
     1     1    14 ar  
     2     1    21 ar  
     3     1    22 1   
     4     2    18 2   
     5     2    19 1   
     6     2    25 1   
     7     3     4 1   
     8     3    16 1   
     9     3    26 1   
    10     3    27 1   
    11     4     5 1   
    12     4     9 1   
    13     4    28 1   
    14     5     6 1   
    15     5    29 1   
    16     5    30 1   
    17     6     7 1   
    18     6    31 1   
    19     6    32 1   
    20     7     8 1   
    21     7    33 1   
    22     7    34 1   
    23     8     9 1   
    24     8    35 1   
    25     8    36 1   
    26     9    37 1   
    27     9    38 1   
    28    10    11 ar  
    29    10    24 ar  
    30    10    39 1   
    31    11    12 ar  
    32    11    40 1   
    33    12    13 ar  
    34    12    41 1   
    35    13    23 ar  
    36    13    42 1   
    37    14    15 ar  
    38    15    16 1   
    39    15    17 ar  
    40    17    18 1   
    41    17    20 ar  
    42    19    20 1   
    43    19    43 1   
    44    20    21 ar  
    45    22    23 1   
    46    22    44 1   
    47    23    24 ar  
    48    24    45 1   
    49    40    46 1   
    50    46    47 1   
    51    46    48 1   
    52    46    49 1   
@<TRIPOS>SUBSTRUCTURE
     1 26          1 TEMP              0 ****  ****    0 ROOT
