@<TRIPOS>MOLECULE
LIG
50 53 1 0 0
SMALL
resp
@<TRIPOS>ATOM
   1   C1       -0.1740   -2.0140    0.2390   ca 1 1oi  0.4693
   2   C2        3.1800   -4.6940   -0.2840   cc 1 1oi  0.2048
   3   C3        2.6130    0.8700   -0.1580   c3 1 1oi  0.0536
   4   C4        3.8840    1.6620   -0.4240   c6 1 1oi  0.0109
   5   C5        3.5590    3.1600   -0.5120   c6 1 1oi -0.0095
   6   C6        4.8150    3.9990   -0.7670   c6 1 1oi -0.0108
   7   C7        5.8930    3.7320    0.2860   c6 1 1oi  0.0006
   8   C8        6.2200    2.2390    0.3790   c6 1 1oi -0.0108
   9   C9        4.9630    1.4020    0.6360   c6 1 1oi -0.0095
  10  C10       -4.1220    0.8510    0.0440   ca 1 1oi -0.0546
  11  C11       -3.4960    2.0410    0.3760   ca 1 1oi -0.1955
  12  C12       -2.1610    1.9940    0.7370   ca 1 1oi -0.1416
  13  C13       -1.4630    0.7980    0.7670   ca 1 1oi -0.0097
  14   N1        0.7540   -1.0630    0.1190   nb 1 1oi -0.3614
  15  C14        2.0060   -1.4200   -0.0770   ca 1 1oi  0.3221
  16   O1        2.9400   -0.5130   -0.2160   os 1 1oi -0.2692
  17  C15        2.3440   -2.7710   -0.1390   ca 1 1oi  0.1459
  18   N2        3.5270   -3.4670   -0.3220   nd 1 1oi -0.5552
  19   N3        1.8290   -4.8800   -0.0860   na 1 1oi -0.4480
  20  C16        1.2820   -3.6420    0.0090   ca 1 1oi  0.4606
  21   N4        0.0120   -3.3200    0.1970   nb 1 1oi -0.6722
  22   N5       -1.4780   -1.6440    0.4260   nu 1 1oi -0.2551
  23  C17       -2.0940   -0.3890    0.4040   ca 1 1oi  0.0226
  24  C18       -3.4380   -0.3500    0.0430   ca 1 1oi -0.1646
  25   H1        3.8420   -5.5290   -0.3920   h5 1 1oi  0.1528
  26   H2        1.8540    1.0840   -0.8980   h1 1 1oi  0.0716
  27   H3        2.2080    1.0960    0.8210   h1 1 1oi  0.0716
  28   H4        4.2690    1.3390   -1.3900   hc 1 1oi  0.0375
  29   H5        3.0980    3.4840    0.4210   hc 1 1oi  0.0061
  30   H6        2.8300    3.3390   -1.2980   hc 1 1oi  0.0061
  31   H7        4.5570    5.0540   -0.7820   hc 1 1oi  0.0060
  32   H8        5.2090    3.7610   -1.7530   hc 1 1oi  0.0060
  33   H9        5.5440    4.0850    1.2560   hc 1 1oi  0.0022
  34  H10        6.7900    4.2990    0.0540   hc 1 1oi  0.0022
  35  H11        6.9470    2.0620    1.1660   hc 1 1oi  0.0060
  36  H12        6.6840    1.9140   -0.5510   hc 1 1oi  0.0060
  37  H13        5.2130    0.3480    0.6560   hc 1 1oi  0.0061
  38  H14        4.5620    1.6510    1.6180   hc 1 1oi  0.0061
  39  H15       -4.0290    2.9710    0.3320   ha 1 1oi  0.1767
  40  H16       -1.6510    2.9020    1.0040   ha 1 1oi  0.1496
  41  H17       -0.4350    0.7850    1.0550   ha 1 1oi  0.0231
  42  H18        1.3400   -5.7440   -0.0270   hn 1 1oi  0.3662
  43  H19       -2.0920   -2.4280    0.4020   hn 1 1oi  0.2812
  44  H20       -3.9430   -1.2470   -0.2650   ha 1 1oi  0.1645
  45   S1       -5.8480    0.8580   -0.3710   sy 1 1oi  1.0511
  46   O2       -6.1220   -0.3420   -1.0940    o 1 1oi -0.5263
  47   O3       -6.1600    2.1500   -0.8910    o 1 1oi -0.5263
  48  H21       -6.5630   -0.1460    1.5060   hn 1 1oi  0.3924
  49   N6       -6.6730    0.7310    1.0400   n8 1 1oi -0.8539
  50  H22       -6.5950    1.5270    1.6380   hn 1 1oi  0.3924
@<TRIPOS>BOND
    1     1    14 ar
    2     1    21 ar
    3     1    22  1
    4     2    18  2
    5     2    19  1
    6     2    25  1
    7     3     4  1
    8     3    16  1
    9     3    26  1
   10     3    27  1
   11     4     5  1
   12     4     9  1
   13     4    28  1
   14     5     6  1
   15     5    29  1
   16     5    30  1
   17     6     7  1
   18     6    31  1
   19     6    32  1
   20     7     8  1
   21     7    33  1
   22     7    34  1
   23     8     9  1
   24     8    35  1
   25     8    36  1
   26     9    37  1
   27     9    38  1
   28    10    11 ar
   29    10    24 ar
   30    10    45  1
   31    11    12 ar
   32    11    39  1
   33    12    13 ar
   34    12    40  1
   35    13    23 ar
   36    13    41  1
   37    14    15 ar
   38    15    16  1
   39    15    17 ar
   40    17    18  1
   41    17    20 ar
   42    19    20  1
   43    19    42  1
   44    20    21 ar
   45    22    23  1
   46    22    43  1
   47    23    24 ar
   48    24    44  1
   49    45    46  2
   50    45    47  2
   51    45    49  1
   52    48    49  1
   53    49    50  1
@<TRIPOS>SUBSTRUCTURE
     1 LIG         1 TEMP              0 ****  ****    0 ROOT
