@<TRIPOS>MOLECULE
29
   56    59     1     0     0
SMALL
No Charge or Current Charge


@<TRIPOS>ATOM
      1 C1           1.4220    29.0340     6.7680 ca         1 29        0.928000
      2 C2          -1.4500    32.1630     8.0080 cc         1 29        0.393700
      3 C3          -0.5820    26.6250     8.9780 c3         1 29        0.136400
      4 C4          -1.2500    25.7670    10.0810 c6         1 29       -0.071700
      5 C5          -1.3550    24.3310     9.5270 c6         1 29       -0.074400
      6 C6          -1.6530    23.2730    10.6030 c6         1 29       -0.075900
      7 C7          -0.7810    23.3430    11.8650 c6         1 29       -0.078400
      8 C8          -0.7120    24.7790    12.4320 c6         1 29       -0.075900
      9 C9          -0.3880    25.8600    11.3800 c6         1 29       -0.074400
     10 C10          3.9640    25.5880     7.5830 ca         1 29        0.003000
     11 C11          4.7030    25.1360     6.4860 ca         1 29       -0.407500
     12 C12          4.7800    25.9180     5.3340 ca         1 29        0.003000
     13 C13          4.0710    27.1110     5.2580 ca         1 29       -0.182500
     14 N1           0.4880    28.1800     7.4980 nb         1 29       -0.825900
     15 C14         -0.5680    28.6370     8.0860 ca         1 29        0.758700
     16 O1          -1.3890    27.8080     8.7520 os         1 29       -0.416100
     17 C15         -0.8370    30.0590     7.9870 ca         1 29       -0.209200
     18 N2          -1.8060    31.0220     8.4250 nd         1 29       -0.499000
     19 N3          -0.3370    32.0960     7.3180 na         1 29       -0.382000
     20 C16          0.0120    30.8440     7.3110 ca         1 29        0.472800
     21 N4           1.1720    30.2780     6.7090 nb         1 29       -0.769900
     22 N5           2.5230    28.7210     6.1570 nu         1 29       -0.730200
     23 C17          3.2730    27.5430     6.3130 ca         1 29        0.224600
     24 C18          3.2600    26.7890     7.4940 ca         1 29       -0.182500
     25 H1          -1.9740    33.0850     8.1590 h5         1 29        0.075800
     26 H2          -0.5390    26.0540     8.0430 h1         1 29        0.055200
     27 H3           0.4530    26.7770     9.3120 h1         1 29        0.055200
     28 H4          -2.2580    26.1250    10.2960 hc         1 29        0.071700
     29 H5          -0.4090    24.0420     9.0630 hc         1 29        0.044200
     30 H6          -2.1060    24.2820     8.7360 hc         1 29        0.044200
     31 H7          -1.6090    22.2710    10.1760 hc         1 29        0.041700
     32 H8          -2.6840    23.4220    10.9160 hc         1 29        0.041700
     33 H9           0.2300    23.0140    11.6180 hc         1 29        0.040200
     34 H10         -1.1520    22.6520    12.6230 hc         1 29        0.040200
     35 H11         -0.0270    24.8110    13.2730 hc         1 29        0.041700
     36 H12         -1.6870    25.0180    12.8620 hc         1 29        0.041700
     37 H13         -0.4740    26.8530    11.8240 hc         1 29        0.044200
     38 H14          0.6710    25.7290    11.1480 hc         1 29        0.044200
     39 H15          3.9200    25.0090     8.4960 ha         1 29        0.153000
     40 H16          5.3920    25.6210     4.4970 ha         1 29        0.153000
     41 H17          4.1490    27.7030     4.3660 ha         1 29        0.151000
     42 H18          0.0880    32.8960     6.8440 hn         1 29        0.319700
     43 H19          2.9160    29.4460     5.5740 hn         1 29        0.455800
     44 H20          2.6830    27.1200     8.3440 ha         1 29        0.151000
     45 S1           5.5740    23.5690     6.5650 sy         1 29        1.511300
     46 O2           4.9440    22.7790     7.6290 o          1 29       -0.653700
     47 O3           7.0040    23.8820     6.6470 o          1 29       -0.653700
     48 N6           5.2830    22.7100     5.0250 n3         1 29       -0.813400
     49 C19          3.9030    22.2720     4.7190 c3         1 29        0.208100
     50 H21          3.9180    21.4050     4.0580 h1         1 29        0.043900
     51 H22          3.3810    22.0030     5.6380 h1         1 29        0.043900
     52 H23          3.3570    23.0870     4.2430 h1         1 29        0.043900
     53 C20          6.1270    23.0260     3.8460 c3         1 29        0.208100
     54 H24          6.2130    22.1490     3.2040 h1         1 29        0.043900
     55 H25          5.6960    23.8490     3.2760 h1         1 29        0.043900
     56 H26          7.1290    23.3140     4.1660 h1         1 29        0.043900
@<TRIPOS>BOND
     1     1    14 ar  
     2     1    21 ar  
     3     1    22 1   
     4     2    18 2   
     5     2    19 1   
     6     2    25 1   
     7     3     4 1   
     8     3    16 1   
     9     3    26 1   
    10     3    27 1   
    11     4     5 1   
    12     4     9 1   
    13     4    28 1   
    14     5     6 1   
    15     5    29 1   
    16     5    30 1   
    17     6     7 1   
    18     6    31 1   
    19     6    32 1   
    20     7     8 1   
    21     7    33 1   
    22     7    34 1   
    23     8     9 1   
    24     8    35 1   
    25     8    36 1   
    26     9    37 1   
    27     9    38 1   
    28    10    11 ar  
    29    10    24 ar  
    30    10    39 1   
    31    11    12 ar  
    32    11    45 1   
    33    12    13 ar  
    34    12    40 1   
    35    13    23 ar  
    36    13    41 1   
    37    14    15 ar  
    38    15    16 1   
    39    15    17 ar  
    40    17    18 1   
    41    17    20 ar  
    42    19    20 1   
    43    19    42 1   
    44    20    21 ar  
    45    22    23 1   
    46    22    43 1   
    47    23    24 ar  
    48    24    44 1   
    49    45    46 2   
    50    45    47 2   
    51    45    48 1   
    52    48    49 1   
    53    48    53 1   
    54    49    50 1   
    55    49    51 1   
    56    49    52 1   
    57    53    54 1   
    58    53    55 1   
    59    53    56 1   
@<TRIPOS>SUBSTRUCTURE
     1 29          1 TEMP              0 ****  ****    0 ROOT
